<?xml version="1.0" encoding="UTF-8"?>
<additional xmlns:xsi="http://www.w3.org/2001/XMLSchema-instance" xsi:noNamespaceSchemaLocation="http://sumo.dlr.de/xsd/additional_file.xsd">
  <inductionLoop id="e1Detector_-1012604824_0" name="-1012604824:-1012604824_0" lane="-1012604824_0" pos="0.00" freq="900.00" file="out.xml"/>
  <inductionLoop id="e1Detector_-1012604827#2_0" name="-1012604827#2:-1012604827#2_0" lane="-1012604827#2_0" pos="0.00" freq="900.00" file="out.xml"/>
  <inductionLoop id="e1Detector_-10300180#2_0" name="-10300180#2:-10300180#2_0" lane="-10300180#2_0" pos="0.00" freq="900.00" file="out.xml"/>
  <inductionLoop id="e1Detector_-1084193495_0" name="-1084193495:-1084193495_0" lane="-1084193495_0" pos="0.00" freq="900.00" file="out.xml"/>
  <inductionLoop id="e1Detector_-1087199952#1_0" name="-1087199952#1:-1087199952#1_0" lane="-1087199952#1_0" pos="0.00" freq="900.00" file="out.xml"/>
  <inductionLoop id="e1Detector_-1087467966_0" name="-1087467966:-1087467966_0" lane="-1087467966_0" pos="0.00" freq="900.00" file="out.xml"/>
  <inductionLoop id="e1Detector_-108965116_0" name="-108965116:-108965116_0" lane="-108965116_0" pos="0.00" freq="900.00" file="out.xml"/>
  <inductionLoop id="e1Detector_-109507186#1_0" name="-109507186#1:-109507186#1_0" lane="-109507186#1_0" pos="0.00" freq="900.00" file="out.xml"/>
  <inductionLoop id="e1Detector_-1099726325_0" name="-1099726325:-1099726325_0" lane="-1099726325_0" pos="0.00" freq="900.00" file="out.xml"/>
  <inductionLoop id="e1Detector_-1104055507_0" name="-1104055507:-1104055507_0" lane="-1104055507_0" pos="0.00" freq="900.00" file="out.xml"/>
  <inductionLoop id="e1Detector_-1180057411_0" name="-1180057411:-1180057411_0" lane="-1180057411_0" pos="0.00" freq="900.00" file="out.xml"/>
  <inductionLoop id="e1Detector_-1191368771_0" name="-1191368771:-1191368771_0" lane="-1191368771_0" pos="0.00" freq="900.00" file="out.xml"/>
  <inductionLoop id="e1Detector_-1193617512_0" name="-1193617512:-1193617512_0" lane="-1193617512_0" pos="0.00" freq="900.00" file="out.xml"/>
  <inductionLoop id="e1Detector_-1193766736_0" name="-1193766736:-1193766736_0" lane="-1193766736_0" pos="0.00" freq="900.00" file="out.xml"/>
  <inductionLoop id="e1Detector_-1199234577_0" name="-1199234577:-1199234577_0" lane="-1199234577_0" pos="0.00" freq="900.00" file="out.xml"/>
  <inductionLoop id="e1Detector_-1201709788_0" name="-1201709788:-1201709788_0" lane="-1201709788_0" pos="0.00" freq="900.00" file="out.xml"/>
  <inductionLoop id="e1Detector_-1201709792_0" name="-1201709792:-1201709792_0" lane="-1201709792_0" pos="0.00" freq="900.00" file="out.xml"/>
  <inductionLoop id="e1Detector_-120424453#1_0" name="-120424453#1:-120424453#1_0" lane="-120424453#1_0" pos="0.00" freq="900.00" file="out.xml"/>
  <inductionLoop id="e1Detector_-120424462#1_0" name="-120424462#1:-120424462#1_0" lane="-120424462#1_0" pos="0.00" freq="900.00" file="out.xml"/>
  <inductionLoop id="e1Detector_-123147244#2_0" name="-123147244#2:-123147244#2_0" lane="-123147244#2_0" pos="0.00" freq="900.00" file="out.xml"/>
  <inductionLoop id="e1Detector_-123147255#1_0" name="-123147255#1:-123147255#1_0" lane="-123147255#1_0" pos="0.00" freq="900.00" file="out.xml"/>
  <inductionLoop id="e1Detector_-129375448#2_0" name="-129375448#2:-129375448#2_0" lane="-129375448#2_0" pos="0.00" freq="900.00" file="out.xml"/>
  <inductionLoop id="e1Detector_-1328177418#1_0" name="-1328177418#1:-1328177418#1_0" lane="-1328177418#1_0" pos="0.00" freq="900.00" file="out.xml"/>
  <inductionLoop id="e1Detector_-1328177419#1_0" name="-1328177419#1:-1328177419#1_0" lane="-1328177419#1_0" pos="0.00" freq="900.00" file="out.xml"/>
  <inductionLoop id="e1Detector_-142419917#1_0" name="-142419917#1:-142419917#1_0" lane="-142419917#1_0" pos="0.00" freq="900.00" file="out.xml"/>
  <inductionLoop id="e1Detector_-142491877_0" name="-142491877:-142491877_0" lane="-142491877_0" pos="0.00" freq="900.00" file="out.xml"/>
  <inductionLoop id="e1Detector_-1425303963_0" name="-1425303963:-1425303963_0" lane="-1425303963_0" pos="0.00" freq="900.00" file="out.xml"/>
  <inductionLoop id="e1Detector_-14315032_0" name="-14315032:-14315032_0" lane="-14315032_0" pos="0.00" freq="900.00" file="out.xml"/>
  <inductionLoop id="e1Detector_-144005341_0" name="-144005341:-144005341_0" lane="-144005341_0" pos="0.00" freq="900.00" file="out.xml"/>
  <inductionLoop id="e1Detector_-144337552_0" name="-144337552:-144337552_0" lane="-144337552_0" pos="0.00" freq="900.00" file="out.xml"/>
  <inductionLoop id="e1Detector_-14888447_0" name="-14888447:-14888447_0" lane="-14888447_0" pos="0.00" freq="900.00" file="out.xml"/>
  <inductionLoop id="e1Detector_-14888449#2_0" name="-14888449#2:-14888449#2_0" lane="-14888449#2_0" pos="0.00" freq="900.00" file="out.xml"/>
  <inductionLoop id="e1Detector_-153319185_0" name="-153319185:-153319185_0" lane="-153319185_0" pos="0.00" freq="900.00" file="out.xml"/>
  <inductionLoop id="e1Detector_-16233355_0" name="-16233355:-16233355_0" lane="-16233355_0" pos="0.00" freq="900.00" file="out.xml"/>
  <inductionLoop id="e1Detector_-17103618_0" name="-17103618:-17103618_0" lane="-17103618_0" pos="0.00" freq="900.00" file="out.xml"/>
  <inductionLoop id="e1Detector_-173530593#3_0" name="-173530593#3:-173530593#3_0" lane="-173530593#3_0" pos="0.00" freq="900.00" file="out.xml"/>
  <inductionLoop id="e1Detector_-18817721_0" name="-18817721:-18817721_0" lane="-18817721_0" pos="0.00" freq="900.00" file="out.xml"/>
  <inductionLoop id="e1Detector_-222568385#2_0" name="-222568385#2:-222568385#2_0" lane="-222568385#2_0" pos="0.00" freq="900.00" file="out.xml"/>
  <inductionLoop id="e1Detector_-237190956#1_0" name="-237190956#1:-237190956#1_0" lane="-237190956#1_0" pos="0.00" freq="900.00" file="out.xml"/>
  <inductionLoop id="e1Detector_-237190957#3_0" name="-237190957#3:-237190957#3_0" lane="-237190957#3_0" pos="0.00" freq="900.00" file="out.xml"/>
  <inductionLoop id="e1Detector_-23978732#2_0" name="-23978732#2:-23978732#2_0" lane="-23978732#2_0" pos="0.00" freq="900.00" file="out.xml"/>
  <inductionLoop id="e1Detector_-23978747_0" name="-23978747:-23978747_0" lane="-23978747_0" pos="0.00" freq="900.00" file="out.xml"/>
  <inductionLoop id="e1Detector_-23978799#2_0" name="-23978799#2:-23978799#2_0" lane="-23978799#2_0" pos="0.00" freq="900.00" file="out.xml"/>
  <inductionLoop id="e1Detector_-23978809_0" name="-23978809:-23978809_0" lane="-23978809_0" pos="0.00" freq="900.00" file="out.xml"/>
  <inductionLoop id="e1Detector_-241074258_0" name="-241074258:-241074258_0" lane="-241074258_0" pos="0.00" freq="900.00" file="out.xml"/>
  <inductionLoop id="e1Detector_-241074261_0" name="-241074261:-241074261_0" lane="-241074261_0" pos="0.00" freq="900.00" file="out.xml"/>
  <inductionLoop id="e1Detector_-241074262#2_0" name="-241074262#2:-241074262#2_0" lane="-241074262#2_0" pos="0.00" freq="900.00" file="out.xml"/>
  <inductionLoop id="e1Detector_-241074268#2_0" name="-241074268#2:-241074268#2_0" lane="-241074268#2_0" pos="0.00" freq="900.00" file="out.xml"/>
  <inductionLoop id="e1Detector_-241074269_0" name="-241074269:-241074269_0" lane="-241074269_0" pos="0.00" freq="900.00" file="out.xml"/>
  <inductionLoop id="e1Detector_-24819641#3_0" name="-24819641#3:-24819641#3_0" lane="-24819641#3_0" pos="0.00" freq="900.00" file="out.xml"/>
  <inductionLoop id="e1Detector_-24898685_0" name="-24898685:-24898685_0" lane="-24898685_0" pos="0.00" freq="900.00" file="out.xml"/>
  <inductionLoop id="e1Detector_-25607735#2_0" name="-25607735#2:-25607735#2_0" lane="-25607735#2_0" pos="0.00" freq="900.00" file="out.xml"/>
  <inductionLoop id="e1Detector_-25610550#2_0" name="-25610550#2:-25610550#2_0" lane="-25610550#2_0" pos="0.00" freq="900.00" file="out.xml"/>
  <inductionLoop id="e1Detector_-25626576#1_0" name="-25626576#1:-25626576#1_0" lane="-25626576#1_0" pos="0.00" freq="900.00" file="out.xml"/>
  <inductionLoop id="e1Detector_-259882548#2_0" name="-259882548#2:-259882548#2_0" lane="-259882548#2_0" pos="0.00" freq="900.00" file="out.xml"/>
  <inductionLoop id="e1Detector_-26133642#2_0" name="-26133642#2:-26133642#2_0" lane="-26133642#2_0" pos="0.00" freq="900.00" file="out.xml"/>
  <inductionLoop id="e1Detector_-261601144_0" name="-261601144:-261601144_0" lane="-261601144_0" pos="0.00" freq="900.00" file="out.xml"/>
  <inductionLoop id="e1Detector_-261601146#2_0" name="-261601146#2:-261601146#2_0" lane="-261601146#2_0" pos="0.00" freq="900.00" file="out.xml"/>
  <inductionLoop id="e1Detector_-261601147_0" name="-261601147:-261601147_0" lane="-261601147_0" pos="0.00" freq="900.00" file="out.xml"/>
  <inductionLoop id="e1Detector_-261601151_0" name="-261601151:-261601151_0" lane="-261601151_0" pos="0.00" freq="900.00" file="out.xml"/>
  <inductionLoop id="e1Detector_-261601153#1_0" name="-261601153#1:-261601153#1_0" lane="-261601153#1_0" pos="0.00" freq="900.00" file="out.xml"/>
  <inductionLoop id="e1Detector_-261603746#2_0" name="-261603746#2:-261603746#2_0" lane="-261603746#2_0" pos="0.00" freq="900.00" file="out.xml"/>
  <inductionLoop id="e1Detector_-261603748#2_0" name="-261603748#2:-261603748#2_0" lane="-261603748#2_0" pos="0.00" freq="900.00" file="out.xml"/>
  <inductionLoop id="e1Detector_-261604624#2_0" name="-261604624#2:-261604624#2_0" lane="-261604624#2_0" pos="0.00" freq="900.00" file="out.xml"/>
  <inductionLoop id="e1Detector_-261736473#1_0" name="-261736473#1:-261736473#1_0" lane="-261736473#1_0" pos="0.00" freq="900.00" file="out.xml"/>
  <inductionLoop id="e1Detector_-26180560_0" name="-26180560:-26180560_0" lane="-26180560_0" pos="0.00" freq="900.00" file="out.xml"/>
  <inductionLoop id="e1Detector_-262279465_0" name="-262279465:-262279465_0" lane="-262279465_0" pos="0.00" freq="900.00" file="out.xml"/>
  <inductionLoop id="e1Detector_-262279466#2_0" name="-262279466#2:-262279466#2_0" lane="-262279466#2_0" pos="0.00" freq="900.00" file="out.xml"/>
  <inductionLoop id="e1Detector_-263433049#2_0" name="-263433049#2:-263433049#2_0" lane="-263433049#2_0" pos="0.00" freq="900.00" file="out.xml"/>
  <inductionLoop id="e1Detector_-27627119_0" name="-27627119:-27627119_0" lane="-27627119_0" pos="0.00" freq="900.00" file="out.xml"/>
  <inductionLoop id="e1Detector_-27653255#2_0" name="-27653255#2:-27653255#2_0" lane="-27653255#2_0" pos="0.00" freq="900.00" file="out.xml"/>
  <inductionLoop id="e1Detector_-28407871_0" name="-28407871:-28407871_0" lane="-28407871_0" pos="0.00" freq="900.00" file="out.xml"/>
  <inductionLoop id="e1Detector_-28407872#1_0" name="-28407872#1:-28407872#1_0" lane="-28407872#1_0" pos="0.00" freq="900.00" file="out.xml"/>
  <inductionLoop id="e1Detector_-28407873_0" name="-28407873:-28407873_0" lane="-28407873_0" pos="0.00" freq="900.00" file="out.xml"/>
  <inductionLoop id="e1Detector_-28407874_0" name="-28407874:-28407874_0" lane="-28407874_0" pos="0.00" freq="900.00" file="out.xml"/>
  <inductionLoop id="e1Detector_-29211151#2_0" name="-29211151#2:-29211151#2_0" lane="-29211151#2_0" pos="0.00" freq="900.00" file="out.xml"/>
  <inductionLoop id="e1Detector_-30412259#2_0" name="-30412259#2:-30412259#2_0" lane="-30412259#2_0" pos="0.00" freq="900.00" file="out.xml"/>
  <inductionLoop id="e1Detector_-31270549#2_0" name="-31270549#2:-31270549#2_0" lane="-31270549#2_0" pos="0.00" freq="900.00" file="out.xml"/>
  <inductionLoop id="e1Detector_-31270550#2_0" name="-31270550#2:-31270550#2_0" lane="-31270550#2_0" pos="0.00" freq="900.00" file="out.xml"/>
  <inductionLoop id="e1Detector_-31270555#1_0" name="-31270555#1:-31270555#1_0" lane="-31270555#1_0" pos="0.00" freq="900.00" file="out.xml"/>
  <inductionLoop id="e1Detector_-31458904#2_0" name="-31458904#2:-31458904#2_0" lane="-31458904#2_0" pos="0.00" freq="900.00" file="out.xml"/>
  <inductionLoop id="e1Detector_-31574237_0" name="-31574237:-31574237_0" lane="-31574237_0" pos="0.00" freq="900.00" file="out.xml"/>
  <inductionLoop id="e1Detector_-31825045#2_0" name="-31825045#2:-31825045#2_0" lane="-31825045#2_0" pos="0.00" freq="900.00" file="out.xml"/>
  <inductionLoop id="e1Detector_-319622469_0" name="-319622469:-319622469_0" lane="-319622469_0" pos="0.00" freq="900.00" file="out.xml"/>
  <inductionLoop id="e1Detector_-32721738#1_0" name="-32721738#1:-32721738#1_0" lane="-32721738#1_0" pos="0.00" freq="900.00" file="out.xml"/>
  <inductionLoop id="e1Detector_-32721739_0" name="-32721739:-32721739_0" lane="-32721739_0" pos="0.00" freq="900.00" file="out.xml"/>
  <inductionLoop id="e1Detector_-32896102_0" name="-32896102:-32896102_0" lane="-32896102_0" pos="0.00" freq="900.00" file="out.xml"/>
  <inductionLoop id="e1Detector_-32952316_0" name="-32952316:-32952316_0" lane="-32952316_0" pos="0.00" freq="900.00" file="out.xml"/>
  <inductionLoop id="e1Detector_-329956741_0" name="-329956741:-329956741_0" lane="-329956741_0" pos="0.00" freq="900.00" file="out.xml"/>
  <inductionLoop id="e1Detector_-329962300_0" name="-329962300:-329962300_0" lane="-329962300_0" pos="0.00" freq="900.00" file="out.xml"/>
  <inductionLoop id="e1Detector_-329965668#2_0" name="-329965668#2:-329965668#2_0" lane="-329965668#2_0" pos="0.00" freq="900.00" file="out.xml"/>
  <inductionLoop id="e1Detector_-330102539#3_0" name="-330102539#3:-330102539#3_0" lane="-330102539#3_0" pos="0.00" freq="900.00" file="out.xml"/>
  <inductionLoop id="e1Detector_-330133127#2_0" name="-330133127#2:-330133127#2_0" lane="-330133127#2_0" pos="0.00" freq="900.00" file="out.xml"/>
  <inductionLoop id="e1Detector_-33523613#1_0" name="-33523613#1:-33523613#1_0" lane="-33523613#1_0" pos="0.00" freq="900.00" file="out.xml"/>
  <inductionLoop id="e1Detector_-33628871#1_0" name="-33628871#1:-33628871#1_0" lane="-33628871#1_0" pos="0.00" freq="900.00" file="out.xml"/>
  <inductionLoop id="e1Detector_-33819457_0" name="-33819457:-33819457_0" lane="-33819457_0" pos="0.00" freq="900.00" file="out.xml"/>
  <inductionLoop id="e1Detector_-344242780#2_0" name="-344242780#2:-344242780#2_0" lane="-344242780#2_0" pos="0.00" freq="900.00" file="out.xml"/>
  <inductionLoop id="e1Detector_-36003383#1_0" name="-36003383#1:-36003383#1_0" lane="-36003383#1_0" pos="0.00" freq="900.00" file="out.xml"/>
  <inductionLoop id="e1Detector_-369084441#1_0" name="-369084441#1:-369084441#1_0" lane="-369084441#1_0" pos="0.00" freq="900.00" file="out.xml"/>
  <inductionLoop id="e1Detector_-369084443#2_0" name="-369084443#2:-369084443#2_0" lane="-369084443#2_0" pos="0.00" freq="900.00" file="out.xml"/>
  <inductionLoop id="e1Detector_-369312516_0" name="-369312516:-369312516_0" lane="-369312516_0" pos="0.00" freq="900.00" file="out.xml"/>
  <inductionLoop id="e1Detector_-369715039_0" name="-369715039:-369715039_0" lane="-369715039_0" pos="0.00" freq="900.00" file="out.xml"/>
  <inductionLoop id="e1Detector_-369945341#1_0" name="-369945341#1:-369945341#1_0" lane="-369945341#1_0" pos="0.00" freq="900.00" file="out.xml"/>
  <inductionLoop id="e1Detector_-370439008_0" name="-370439008:-370439008_0" lane="-370439008_0" pos="0.00" freq="900.00" file="out.xml"/>
  <inductionLoop id="e1Detector_-370439010_0" name="-370439010:-370439010_0" lane="-370439010_0" pos="0.00" freq="900.00" file="out.xml"/>
  <inductionLoop id="e1Detector_-372613192#2_0" name="-372613192#2:-372613192#2_0" lane="-372613192#2_0" pos="0.00" freq="900.00" file="out.xml"/>
  <inductionLoop id="e1Detector_-37374044_0" name="-37374044:-37374044_0" lane="-37374044_0" pos="0.00" freq="900.00" file="out.xml"/>
  <inductionLoop id="e1Detector_-378655055#1_0" name="-378655055#1:-378655055#1_0" lane="-378655055#1_0" pos="0.00" freq="900.00" file="out.xml"/>
  <inductionLoop id="e1Detector_-4017600_0" name="-4017600:-4017600_0" lane="-4017600_0" pos="0.00" freq="900.00" file="out.xml"/>
  <inductionLoop id="e1Detector_-4017601_0" name="-4017601:-4017601_0" lane="-4017601_0" pos="0.00" freq="900.00" file="out.xml"/>
  <inductionLoop id="e1Detector_-407500703#2_0" name="-407500703#2:-407500703#2_0" lane="-407500703#2_0" pos="0.00" freq="900.00" file="out.xml"/>
  <inductionLoop id="e1Detector_-407500705#2_0" name="-407500705#2:-407500705#2_0" lane="-407500705#2_0" pos="0.00" freq="900.00" file="out.xml"/>
  <inductionLoop id="e1Detector_-411043307_0" name="-411043307:-411043307_0" lane="-411043307_0" pos="0.00" freq="900.00" file="out.xml"/>
  <inductionLoop id="e1Detector_-411043309#2_0" name="-411043309#2:-411043309#2_0" lane="-411043309#2_0" pos="0.00" freq="900.00" file="out.xml"/>
  <inductionLoop id="e1Detector_-411579684#2_0" name="-411579684#2:-411579684#2_0" lane="-411579684#2_0" pos="0.00" freq="900.00" file="out.xml"/>
  <inductionLoop id="e1Detector_-411582351_0" name="-411582351:-411582351_0" lane="-411582351_0" pos="0.00" freq="900.00" file="out.xml"/>
  <inductionLoop id="e1Detector_-411770450_0" name="-411770450:-411770450_0" lane="-411770450_0" pos="0.00" freq="900.00" file="out.xml"/>
  <inductionLoop id="e1Detector_-411770451_0" name="-411770451:-411770451_0" lane="-411770451_0" pos="0.00" freq="900.00" file="out.xml"/>
  <inductionLoop id="e1Detector_-412150080#2_0" name="-412150080#2:-412150080#2_0" lane="-412150080#2_0" pos="0.00" freq="900.00" file="out.xml"/>
  <inductionLoop id="e1Detector_-412150085#1_0" name="-412150085#1:-412150085#1_0" lane="-412150085#1_0" pos="0.00" freq="900.00" file="out.xml"/>
  <inductionLoop id="e1Detector_-414625118_0" name="-414625118:-414625118_0" lane="-414625118_0" pos="0.00" freq="900.00" file="out.xml"/>
  <inductionLoop id="e1Detector_-414625119_0" name="-414625119:-414625119_0" lane="-414625119_0" pos="0.00" freq="900.00" file="out.xml"/>
  <inductionLoop id="e1Detector_-420119507#2_0" name="-420119507#2:-420119507#2_0" lane="-420119507#2_0" pos="0.00" freq="900.00" file="out.xml"/>
  <inductionLoop id="e1Detector_-420260799_0" name="-420260799:-420260799_0" lane="-420260799_0" pos="0.00" freq="900.00" file="out.xml"/>
  <inductionLoop id="e1Detector_-420260805_0" name="-420260805:-420260805_0" lane="-420260805_0" pos="0.00" freq="900.00" file="out.xml"/>
  <inductionLoop id="e1Detector_-420298437_0" name="-420298437:-420298437_0" lane="-420298437_0" pos="0.00" freq="900.00" file="out.xml"/>
  <inductionLoop id="e1Detector_-420300229#2_0" name="-420300229#2:-420300229#2_0" lane="-420300229#2_0" pos="0.00" freq="900.00" file="out.xml"/>
  <inductionLoop id="e1Detector_-422241948#1_0" name="-422241948#1:-422241948#1_0" lane="-422241948#1_0" pos="0.00" freq="900.00" file="out.xml"/>
  <inductionLoop id="e1Detector_-429299863#2_0" name="-429299863#2:-429299863#2_0" lane="-429299863#2_0" pos="0.00" freq="900.00" file="out.xml"/>
  <inductionLoop id="e1Detector_-431603662#2_0" name="-431603662#2:-431603662#2_0" lane="-431603662#2_0" pos="0.00" freq="900.00" file="out.xml"/>
  <inductionLoop id="e1Detector_-4443744#2_0" name="-4443744#2:-4443744#2_0" lane="-4443744#2_0" pos="0.00" freq="900.00" file="out.xml"/>
  <inductionLoop id="e1Detector_-4443746#2_0" name="-4443746#2:-4443746#2_0" lane="-4443746#2_0" pos="0.00" freq="900.00" file="out.xml"/>
  <inductionLoop id="e1Detector_-4443747#1_0" name="-4443747#1:-4443747#1_0" lane="-4443747#1_0" pos="0.00" freq="900.00" file="out.xml"/>
  <inductionLoop id="e1Detector_-4444685#2_0" name="-4444685#2:-4444685#2_0" lane="-4444685#2_0" pos="0.00" freq="900.00" file="out.xml"/>
  <inductionLoop id="e1Detector_-46835310#2_0" name="-46835310#2:-46835310#2_0" lane="-46835310#2_0" pos="0.00" freq="900.00" file="out.xml"/>
  <inductionLoop id="e1Detector_-478516443_0" name="-478516443:-478516443_0" lane="-478516443_0" pos="0.00" freq="900.00" file="out.xml"/>
  <inductionLoop id="e1Detector_-478516445_0" name="-478516445:-478516445_0" lane="-478516445_0" pos="0.00" freq="900.00" file="out.xml"/>
  <inductionLoop id="e1Detector_-488338802_0" name="-488338802:-488338802_0" lane="-488338802_0" pos="0.00" freq="900.00" file="out.xml"/>
  <inductionLoop id="e1Detector_-4923656_0" name="-4923656:-4923656_0" lane="-4923656_0" pos="0.00" freq="900.00" file="out.xml"/>
  <inductionLoop id="e1Detector_-4923955#1_0" name="-4923955#1:-4923955#1_0" lane="-4923955#1_0" pos="0.00" freq="900.00" file="out.xml"/>
  <inductionLoop id="e1Detector_-4928833#4_0" name="-4928833#4:-4928833#4_0" lane="-4928833#4_0" pos="0.00" freq="900.00" file="out.xml"/>
  <inductionLoop id="e1Detector_-4964411_0" name="-4964411:-4964411_0" lane="-4964411_0" pos="0.00" freq="900.00" file="out.xml"/>
  <inductionLoop id="e1Detector_-4992149#2_0" name="-4992149#2:-4992149#2_0" lane="-4992149#2_0" pos="0.00" freq="900.00" file="out.xml"/>
  <inductionLoop id="e1Detector_-507049304#1_0" name="-507049304#1:-507049304#1_0" lane="-507049304#1_0" pos="0.00" freq="900.00" file="out.xml"/>
  <inductionLoop id="e1Detector_-520819516#1_0" name="-520819516#1:-520819516#1_0" lane="-520819516#1_0" pos="0.00" freq="900.00" file="out.xml"/>
  <inductionLoop id="e1Detector_-520819517_0" name="-520819517:-520819517_0" lane="-520819517_0" pos="0.00" freq="900.00" file="out.xml"/>
  <inductionLoop id="e1Detector_-520885098_0" name="-520885098:-520885098_0" lane="-520885098_0" pos="0.00" freq="900.00" file="out.xml"/>
  <inductionLoop id="e1Detector_-523037727_0" name="-523037727:-523037727_0" lane="-523037727_0" pos="0.00" freq="900.00" file="out.xml"/>
  <inductionLoop id="e1Detector_-546342017_0" name="-546342017:-546342017_0" lane="-546342017_0" pos="0.00" freq="900.00" file="out.xml"/>
  <inductionLoop id="e1Detector_-546398680_0" name="-546398680:-546398680_0" lane="-546398680_0" pos="0.00" freq="900.00" file="out.xml"/>
  <inductionLoop id="e1Detector_-548185940_0" name="-548185940:-548185940_0" lane="-548185940_0" pos="0.00" freq="900.00" file="out.xml"/>
  <inductionLoop id="e1Detector_-568582017_0" name="-568582017:-568582017_0" lane="-568582017_0" pos="0.00" freq="900.00" file="out.xml"/>
  <inductionLoop id="e1Detector_-608127843_0" name="-608127843:-608127843_0" lane="-608127843_0" pos="0.00" freq="900.00" file="out.xml"/>
  <inductionLoop id="e1Detector_-610027401_0" name="-610027401:-610027401_0" lane="-610027401_0" pos="0.00" freq="900.00" file="out.xml"/>
  <inductionLoop id="e1Detector_-610041098#1_0" name="-610041098#1:-610041098#1_0" lane="-610041098#1_0" pos="0.00" freq="900.00" file="out.xml"/>
  <inductionLoop id="e1Detector_-675512897_0" name="-675512897:-675512897_0" lane="-675512897_0" pos="0.00" freq="900.00" file="out.xml"/>
  <inductionLoop id="e1Detector_-691705934_0" name="-691705934:-691705934_0" lane="-691705934_0" pos="0.00" freq="900.00" file="out.xml"/>
  <inductionLoop id="e1Detector_-695652364_0" name="-695652364:-695652364_0" lane="-695652364_0" pos="0.00" freq="900.00" file="out.xml"/>
  <inductionLoop id="e1Detector_-709811298_0" name="-709811298:-709811298_0" lane="-709811298_0" pos="0.00" freq="900.00" file="out.xml"/>
  <inductionLoop id="e1Detector_-75095612#2_0" name="-75095612#2:-75095612#2_0" lane="-75095612#2_0" pos="0.00" freq="900.00" file="out.xml"/>
  <inductionLoop id="e1Detector_-75356687_0" name="-75356687:-75356687_0" lane="-75356687_0" pos="0.00" freq="900.00" file="out.xml"/>
  <inductionLoop id="e1Detector_-784589965#1_0" name="-784589965#1:-784589965#1_0" lane="-784589965#1_0" pos="0.00" freq="900.00" file="out.xml"/>
  <inductionLoop id="e1Detector_-78500971_0" name="-78500971:-78500971_0" lane="-78500971_0" pos="0.00" freq="900.00" file="out.xml"/>
  <inductionLoop id="e1Detector_-8070322_0" name="-8070322:-8070322_0" lane="-8070322_0" pos="0.00" freq="900.00" file="out.xml"/>
  <inductionLoop id="e1Detector_-8081883_0" name="-8081883:-8081883_0" lane="-8081883_0" pos="0.00" freq="900.00" file="out.xml"/>
  <inductionLoop id="e1Detector_-8081892_0" name="-8081892:-8081892_0" lane="-8081892_0" pos="0.00" freq="900.00" file="out.xml"/>
  <inductionLoop id="e1Detector_-8111293#3_0" name="-8111293#3:-8111293#3_0" lane="-8111293#3_0" pos="0.00" freq="900.00" file="out.xml"/>
  <inductionLoop id="e1Detector_-860287352_0" name="-860287352:-860287352_0" lane="-860287352_0" pos="0.00" freq="900.00" file="out.xml"/>
  <inductionLoop id="e1Detector_-882466212_0" name="-882466212:-882466212_0" lane="-882466212_0" pos="0.00" freq="900.00" file="out.xml"/>
  <inductionLoop id="e1Detector_-882466218#2_0" name="-882466218#2:-882466218#2_0" lane="-882466218#2_0" pos="0.00" freq="900.00" file="out.xml"/>
  <inductionLoop id="e1Detector_-911266449#1_0" name="-911266449#1:-911266449#1_0" lane="-911266449#1_0" pos="0.00" freq="900.00" file="out.xml"/>
  <inductionLoop id="e1Detector_-911471267_0" name="-911471267:-911471267_0" lane="-911471267_0" pos="0.00" freq="900.00" file="out.xml"/>
  <inductionLoop id="e1Detector_-945632558#2_0" name="-945632558#2:-945632558#2_0" lane="-945632558#2_0" pos="0.00" freq="900.00" file="out.xml"/>
  <inductionLoop id="e1Detector_-95785106_0" name="-95785106:-95785106_0" lane="-95785106_0" pos="0.00" freq="900.00" file="out.xml"/>
  <inductionLoop id="e1Detector_-977061374#2_0" name="-977061374#2:-977061374#2_0" lane="-977061374#2_0" pos="0.00" freq="900.00" file="out.xml"/>
  <inductionLoop id="e1Detector_1011064331_0" name="1011064331:1011064331_0" lane="1011064331_0" pos="0.00" freq="900.00" file="out.xml"/>
  <inductionLoop id="e1Detector_1011064332_0" name="1011064332:1011064332_0" lane="1011064332_0" pos="0.00" freq="900.00" file="out.xml"/>
  <inductionLoop id="e1Detector_1012604822#0_0" name="1012604822#0:1012604822#0_0" lane="1012604822#0_0" pos="0.00" freq="900.00" file="out.xml"/>
  <inductionLoop id="e1Detector_1012604823#0_0" name="1012604823#0:1012604823#0_0" lane="1012604823#0_0" pos="0.00" freq="900.00" file="out.xml"/>
  <inductionLoop id="e1Detector_1012604824_0" name="1012604824:1012604824_0" lane="1012604824_0" pos="0.00" freq="900.00" file="out.xml"/>
  <inductionLoop id="e1Detector_10300180#0_0" name="10300180#0:10300180#0_0" lane="10300180#0_0" pos="0.00" freq="900.00" file="out.xml"/>
  <inductionLoop id="e1Detector_1063259571_0" name="1063259571:1063259571_0" lane="1063259571_0" pos="0.00" freq="900.00" file="out.xml"/>
  <inductionLoop id="e1Detector_1081191110_0" name="1081191110:1081191110_0" lane="1081191110_0" pos="0.00" freq="900.00" file="out.xml"/>
  <inductionLoop id="e1Detector_1084193492_0" name="1084193492:1084193492_0" lane="1084193492_0" pos="0.00" freq="900.00" file="out.xml"/>
  <inductionLoop id="e1Detector_1084193493_0" name="1084193493:1084193493_0" lane="1084193493_0" pos="0.00" freq="900.00" file="out.xml"/>
  <inductionLoop id="e1Detector_1086072367_0" name="1086072367:1086072367_0" lane="1086072367_0" pos="0.00" freq="900.00" file="out.xml"/>
  <inductionLoop id="e1Detector_1087025658_0" name="1087025658:1087025658_0" lane="1087025658_0" pos="0.00" freq="900.00" file="out.xml"/>
  <inductionLoop id="e1Detector_1087025662_0" name="1087025662:1087025662_0" lane="1087025662_0" pos="0.00" freq="900.00" file="out.xml"/>
  <inductionLoop id="e1Detector_1087025663_0" name="1087025663:1087025663_0" lane="1087025663_0" pos="0.00" freq="900.00" file="out.xml"/>
  <inductionLoop id="e1Detector_1087199942_0" name="1087199942:1087199942_0" lane="1087199942_0" pos="0.00" freq="900.00" file="out.xml"/>
  <inductionLoop id="e1Detector_1087199948#0_0" name="1087199948#0:1087199948#0_0" lane="1087199948#0_0" pos="0.00" freq="900.00" file="out.xml"/>
  <inductionLoop id="e1Detector_1087199950_0" name="1087199950:1087199950_0" lane="1087199950_0" pos="0.00" freq="900.00" file="out.xml"/>
  <inductionLoop id="e1Detector_1087539269_0" name="1087539269:1087539269_0" lane="1087539269_0" pos="0.00" freq="900.00" file="out.xml"/>
  <inductionLoop id="e1Detector_1087539272_0" name="1087539272:1087539272_0" lane="1087539272_0" pos="0.00" freq="900.00" file="out.xml"/>
  <inductionLoop id="e1Detector_109507186#0_0" name="109507186#0:109507186#0_0" lane="109507186#0_0" pos="0.00" freq="900.00" file="out.xml"/>
  <inductionLoop id="e1Detector_1104055505_0" name="1104055505:1104055505_0" lane="1104055505_0" pos="0.00" freq="900.00" file="out.xml"/>
  <inductionLoop id="e1Detector_1104055508_0" name="1104055508:1104055508_0" lane="1104055508_0" pos="0.00" freq="900.00" file="out.xml"/>
  <inductionLoop id="e1Detector_1151263508_0" name="1151263508:1151263508_0" lane="1151263508_0" pos="0.00" freq="900.00" file="out.xml"/>
  <inductionLoop id="e1Detector_1153024461#0_0" name="1153024461#0:1153024461#0_0" lane="1153024461#0_0" pos="0.00" freq="900.00" file="out.xml"/>
  <inductionLoop id="e1Detector_1154739793_0" name="1154739793:1154739793_0" lane="1154739793_0" pos="0.00" freq="900.00" file="out.xml"/>
  <inductionLoop id="e1Detector_1180057411_0" name="1180057411:1180057411_0" lane="1180057411_0" pos="0.00" freq="900.00" file="out.xml"/>
  <inductionLoop id="e1Detector_1186476285_0" name="1186476285:1186476285_0" lane="1186476285_0" pos="0.00" freq="900.00" file="out.xml"/>
  <inductionLoop id="e1Detector_1189823134#0_0" name="1189823134#0:1189823134#0_0" lane="1189823134#0_0" pos="0.00" freq="900.00" file="out.xml"/>
  <inductionLoop id="e1Detector_1191168447_0" name="1191168447:1191168447_0" lane="1191168447_0" pos="0.00" freq="900.00" file="out.xml"/>
  <inductionLoop id="e1Detector_1191168449_0" name="1191168449:1191168449_0" lane="1191168449_0" pos="0.00" freq="900.00" file="out.xml"/>
  <inductionLoop id="e1Detector_1191168450_0" name="1191168450:1191168450_0" lane="1191168450_0" pos="0.00" freq="900.00" file="out.xml"/>
  <inductionLoop id="e1Detector_1191368771_0" name="1191368771:1191368771_0" lane="1191368771_0" pos="0.00" freq="900.00" file="out.xml"/>
  <inductionLoop id="e1Detector_1193766735_0" name="1193766735:1193766735_0" lane="1193766735_0" pos="0.00" freq="900.00" file="out.xml"/>
  <inductionLoop id="e1Detector_1194219385_0" name="1194219385:1194219385_0" lane="1194219385_0" pos="0.00" freq="900.00" file="out.xml"/>
  <inductionLoop id="e1Detector_1194952068#0_0" name="1194952068#0:1194952068#0_0" lane="1194952068#0_0" pos="0.00" freq="900.00" file="out.xml"/>