<?xml version="1.0" encoding="UTF-8"?>

<!-- generated on 2025-09-26 17:25:59 by Eclipse SUMO netedit Version 1.23.1
-->

<routes xmlns:xsi="http://www.w3.org/2001/XMLSchema-instance" xsi:noNamespaceSchemaLocation="http://sumo.dlr.de/xsd/routes_file.xsd">
    <!-- Routes -->
    <route id="r_0" edges="-259921927#3 -4553661#2 -24819641#3 4444387#0 1313596279#0 35872865 5012279 62091761#0 222714920#0 146079345#0 222714916#0 222714918#0 222714917#0 1349777341#0 8046215 28758500 440595795 E25"/>
    <route id="r_1" edges="42784389 222577615 222577617 78500972 72102228 440595797 76778527#0 211085460 14184591 1306125519 222714919#0 253521588 206125629#0 206125630#0 259023091#0 1383075408#0 259023092#0 259921926#0 4553661#0 443406807"/>
    <route id="r_2" edges="-259921927#3 -4553661#2 -24819641#3 24655690#0 29246662 1186476285 429047402 261740053#0 29243903#0 429041568#0 29243901 429040220#0 93279843 429039733 261619663 261619667 261619670 E14"/>
    <route id="r_3" edges="E11 261740046 74864596#0 93279631#0 93279628#0 261740047#0 29246665#0 429044449 429044448#0 29246663 261740052#0 24819641#0 4553661#0 443406807"/>
    <!-- Vehicles, persons and containers (sorted by depart) -->
    <flow id="f_0" begin="0.00" route="r_0" end="3600.00" vehsPerHour="200"/>
    <flow id="f_1" begin="0.00" route="r_1" end="3600.00" vehsPerHour="200"/>
    <flow id="f_2" begin="0.00" route="r_2" end="3600.00" vehsPerHour="200"/>
    <flow id="f_3" begin="0.00" route="r_3" end="3600.00" vehsPerHour="200"/>
</routes>
