<?xml version="1.0" encoding="UTF-8"?>

<!-- generated on 2025-09-15 21:55:55.421474 by randomTrips.py v1_23_1+0000-676720d13f6
<configuration>
    <net-file value="C:\Users\joel\TUM\TUM-VT - TCH - MSc Traffic Flow Simulation Extension\W25_26\project\Aachen.net.xml"/>
    <output-trip-file value="C:\Users\joel\TUM\TUM-VT - TCH - MSc Traffic Flow Simulation Extension\W25_26\project\dyn\trips.rou"/>
    <validate value="True"/>
    <end value="7500.0"/>
    <insertion-rate value="5000.0"/>
</configuration>
-->

<!-- generated on 2025-09-15 21:55:53 by Eclipse SUMO duarouter Version 1.23.1
<duarouterConfiguration xmlns:xsi="http://www.w3.org/2001/XMLSchema-instance" xsi:noNamespaceSchemaLocation="http://sumo.dlr.de/xsd/duarouterConfiguration.xsd">

    <input>
        <net-file value="C:\Users\joel\TUM\TUM-VT - TCH - MSc Traffic Flow Simulation Extension\W25_26\project\Aachen.net.xml"/>
        <route-files value="C:\Users\joel\TUM\TUM-VT - TCH - MSc Traffic Flow Simulation Extension\W25_26\project\dyn\trips.rou"/>
    </input>

    <output>
        <output-file value="C:\Users\joel\TUM\TUM-VT - TCH - MSc Traffic Flow Simulation Extension\W25_26\project\dyn\trips.rou.tmp"/>
        <alternatives-output value="NUL"/>
        <write-trips value="true"/>
    </output>

    <time>
        <begin value="0"/>
        <end value="7500.0"/>
    </time>

    <report>
        <no-warnings value="true"/>
        <ignore-errors value="true"/>
        <no-step-log value="true"/>
    </report>

</duarouterConfiguration>
-->

<routes xmlns:xsi="http://www.w3.org/2001/XMLSchema-instance" xsi:noNamespaceSchemaLocation="http://sumo.dlr.de/xsd/routes_file.xsd">
    <trip id="0" depart="0.00" from="33628871#0" to="-1185325672"/>
    <trip id="1" depart="0.72" from="-78500971" to="-4928833#4"/>
    <trip id="2" depart="1.44" from="413017424" to="37680354"/>
    <trip id="3" depart="2.16" from="75356687" to="-241074268#2"/>
    <trip id="4" depart="2.88" from="14036945#0" to="-1193766736"/>
    <trip id="5" depart="3.60" from="-478472521" to="24236652#0"/>
    <trip id="6" depart="4.32" from="-1189742822" to="-415624684#2"/>
    <trip id="7" depart="5.04" from="36003384" to="261601151"/>
    <trip id="8" depart="5.76" from="-478516445" to="28758500"/>
    <trip id="9" depart="6.48" from="4975523" to="-1084193495"/>
    <trip id="10" depart="7.20" from="4964411" to="407322829"/>
    <trip id="11" depart="7.92" from="1087199950" to="-379075438#2"/>
    <trip id="12" depart="8.64" from="9277536" to="1087199942"/>
    <trip id="13" depart="9.36" from="-25607735#2" to="-259882549#2"/>
    <trip id="14" depart="10.08" from="564298998" to="30711133#0"/>
    <trip id="15" depart="10.80" from="4965736#0" to="412787350#0"/>
    <trip id="16" depart="11.52" from="259882554#0" to="98738626#3"/>
    <trip id="17" depart="12.24" from="1199234582" to="261606198#0"/>
    <trip id="18" depart="12.96" from="5168924" to="32209547#0"/>
    <trip id="19" depart="13.68" from="603756588" to="26333924"/>
    <trip id="20" depart="14.40" from="411043309#0" to="-123254035"/>
    <trip id="21" depart="15.12" from="-4992148#2" to="-911266449#1"/>
    <trip id="22" depart="15.84" from="-237190957#3" to="-520819517"/>
    <trip id="23" depart="16.56" from="-261601151" to="-8070343#2"/>
    <trip id="24" depart="17.28" from="32896102" to="1194822640"/>
    <trip id="25" depart="18.00" from="1194952067" to="-436581184#1"/>
    <trip id="26" depart="18.72" from="-729408527" to="882466220"/>
    <trip id="27" depart="19.44" from="36003376" to="31270565#0"/>
    <trip id="28" depart="20.16" from="-411043307" to="412160529"/>
    <trip id="29" depart="20.88" from="-405013984" to="1202822340"/>
    <trip id="30" depart="21.60" from="E32" to="33819567#0"/>
    <trip id="31" depart="22.32" from="261606213#0" to="400948145#0"/>
    <trip id="32" depart="23.04" from="53208888" to="4443747#0"/>
    <trip id="33" depart="23.76" from="-4992149#2" to="-1199234577"/>
    <trip id="34" depart="24.48" from="-E8" to="-75103089"/>
    <trip id="35" depart="25.20" from="-436666240#1" to="907164804"/>
    <trip id="36" depart="25.92" from="610577375" to="1007099280"/>
    <trip id="37" depart="26.64" from="367728194" to="1267941939"/>
    <trip id="38" depart="27.36" from="8082128" to="185080878#0"/>
    <trip id="39" depart="28.08" from="-699087325" to="-58878882"/>
    <trip id="40" depart="28.80" from="261606242" to="-695652364"/>
    <trip id="41" depart="29.52" from="27653247#0" to="78500972"/>
    <trip id="42" depart="30.24" from="12844884" to="-478516445"/>
    <trip id="43" depart="30.96" from="E49" to="244615797#0"/>
    <trip id="44" depart="31.68" from="-24898685" to="-124177232#2"/>
    <trip id="45" depart="32.40" from="-263433049#2" to="32461843"/>
    <trip id="46" depart="33.12" from="46354255" to="14184591"/>
    <trip id="47" depart="33.84" from="-15229027#1" to="1204768088"/>
    <trip id="48" depart="34.56" from="E47" to="25690692#0"/>
    <trip id="49" depart="35.28" from="977061374#0" to="603756592"/>
    <trip id="50" depart="36.00" from="-10976340#2" to="411760471"/>
    <trip id="51" depart="36.72" from="378655061#0" to="260317787"/>
    <trip id="52" depart="37.44" from="-729408527" to="33829145"/>
    <trip id="53" depart="38.16" from="-27865722" to="14889291"/>
    <trip id="54" depart="38.88" from="17103658" to="911266466#0"/>
    <trip id="55" depart="39.60" from="610577374#3" to="-699087325"/>
    <trip id="56" depart="40.32" from="23978806#0" to="-411476230"/>
    <trip id="57" depart="41.04" from="8081887" to="610192041#0"/>
    <trip id="58" depart="41.76" from="-977571258#2" to="33819566"/>
    <trip id="59" depart="42.48" from="31270556" to="-37374044"/>
    <trip id="60" depart="43.20" from="429044448#0" to="260837552"/>
    <trip id="61" depart="43.92" from="4444385#0" to="258080580"/>
    <trip id="62" depart="44.64" from="-1006307950" to="1063259571"/>
    <trip id="63" depart="45.36" from="-115658980" to="820149964"/>
    <trip id="64" depart="46.08" from="61403522#0" to="520885095"/>
    <trip id="65" depart="46.80" from="-E23" to="-14315032"/>
    <trip id="66" depart="47.52" from="61379000" to="911221406#0"/>
    <trip id="67" depart="48.24" from="-241074262#2" to="222714919#0"/>
    <trip id="68" depart="48.96" from="-185050979#2" to="429041568#0"/>
    <trip id="69" depart="49.68" from="429296305" to="-32721738#1"/>
    <trip id="70" depart="50.40" from="211085460" to="261604624#0"/>
    <trip id="71" depart="51.12" from="-699087325" to="610192047#0"/>
    <trip id="72" depart="51.84" from="1412536768" to="-4443746#2"/>
    <trip id="73" depart="52.56" from="260317791" to="412787350#0"/>
    <trip id="74" depart="53.28" from="-420119507#2" to="-E41"/>
    <trip id="75" depart="54.00" from="E45" to="36341376#0"/>
    <trip id="76" depart="54.72" from="15103407" to="255038402"/>
    <trip id="77" depart="55.44" from="-31270555#1" to="-4964411"/>
    <trip id="78" depart="56.16" from="1087025663" to="28638877"/>
    <trip id="79" depart="56.88" from="-5057955" to="-481799129"/>
    <trip id="80" depart="57.60" from="-206121404#2" to="32749870"/>
    <trip id="81" depart="58.32" from="-4992149#2" to="8046508"/>
    <trip id="82" depart="59.04" from="59202373" to="-206121410"/>
    <trip id="83" depart="59.76" from="-546342017" to="370439010"/>
    <trip id="84" depart="60.48" from="-4444390#3" to="-329962300"/>
    <trip id="85" depart="61.20" from="8745371#0" to="261740053#0"/>
    <trip id="86" depart="61.92" from="206293853#0" to="4444697#0"/>
    <trip id="87" depart="62.64" from="4965736#0" to="-412787353"/>
    <trip id="88" depart="63.36" from="-259882549#2" to="144337551#0"/>
    <trip id="89" depart="64.08" from="14182654" to="206121410"/>
    <trip id="90" depart="64.80" from="412155346#0" to="37117203-AddedOnRampEdge"/>
    <trip id="91" depart="65.52" from="E23" to="-261601144"/>
    <trip id="92" depart="66.24" from="129375448#0" to="1087539272"/>
    <trip id="93" depart="66.96" from="603756588" to="-603756581"/>
    <trip id="94" depart="67.68" from="-412787352" to="166272323"/>
    <trip id="95" depart="68.40" from="14036945#0" to="-8081883"/>
    <trip id="96" depart="69.12" from="-597375787" to="8082650"/>
    <trip id="97" depart="69.84" from="15229027#0" to="608729165#0"/>
    <trip id="98" depart="70.56" from="261603746#0" to="-128882191"/>
    <trip id="99" depart="71.28" from="E8" to="523037720"/>
    <trip id="100" depart="72.00" from="954188616" to="8111293#0"/>
    <trip id="101" depart="72.72" from="564299000" to="-407322829"/>
    <trip id="102" depart="73.44" from="222714552" to="-4444685#2"/>
    <trip id="103" depart="74.16" from="129375446" to="-144005341"/>
    <trip id="104" depart="74.88" from="1199237029" to="E25"/>
    <trip id="105" depart="75.60" from="-699087325" to="4444696#0"/>
    <trip id="106" depart="76.32" from="17393414" to="14193958"/>
    <trip id="107" depart="77.04" from="9277536" to="E46"/>
    <trip id="108" depart="77.76" from="261606206" to="411579683#0"/>
    <trip id="109" depart="78.48" from="-379075436#2" to="-97833581#2"/>
    <trip id="110" depart="79.20" from="954188616" to="263430075#0"/>
    <trip id="111" depart="79.92" from="261223999" to="420260801"/>
    <trip id="112" depart="80.64" from="-142419917#1" to="27865722"/>
    <trip id="113" depart="81.36" from="23978809" to="566361706"/>
    <trip id="114" depart="82.08" from="-39168906" to="939477004"/>
    <trip id="115" depart="82.80" from="-237190957#3" to="-412142123"/>
    <trip id="116" depart="83.52" from="29243901" to="372613192#0"/>
    <trip id="117" depart="84.24" from="-520885098" to="-31270550#2"/>
    <trip id="118" depart="84.96" from="74864596#0" to="-5762199#2"/>
    <trip id="119" depart="85.68" from="29243901" to="32209550#0"/>
    <trip id="120" depart="86.40" from="13871627#0" to="27653256#0"/>
    <trip id="121" depart="87.12" from="25610550#0" to="873203055"/>
    <trip id="122" depart="87.84" from="-420726939" to="411476230"/>
    <trip id="123" depart="88.56" from="-546398680" to="1267941939"/>
    <trip id="124" depart="89.28" from="370439013#0" to="-997494409"/>
    <trip id="125" depart="90.00" from="-E9" to="422141867#0"/>
    <trip id="126" depart="90.72" from="-206124247#2" to="185051811#0"/>
    <trip id="127" depart="91.44" from="E7" to="E47"/>
    <trip id="128" depart="92.16" from="-206293099#2" to="-4444390#3"/>
    <trip id="129" depart="92.88" from="-699087325" to="8590785#0"/>
    <trip id="130" depart="93.60" from="65157090#0" to="633892178#0"/>
    <trip id="131" depart="94.32" from="1194935201" to="-4017593#2"/>
    <trip id="132" depart="95.04" from="520885097" to="411078896#0"/>
    <trip id="133" depart="95.76" from="31458904#0" to="E29"/>
    <trip id="134" depart="96.48" from="367723404" to="-108553549#3"/>
    <trip id="135" depart="97.20" from="5047996#0" to="-9930918"/>
    <trip id="136" depart="97.92" from="368462900#0" to="902140319"/>
    <trip id="137" depart="98.64" from="-330102539#3" to="-28407874"/>
    <trip id="138" depart="99.36" from="-261740057#2" to="261606204"/>
    <trip id="139" depart="100.08" from="-76561469" to="31193704"/>
    <trip id="140" depart="100.80" from="411476230" to="-420726939"/>
    <trip id="141" depart="101.52" from="328115150" to="-708520110"/>
    <trip id="142" depart="102.24" from="222714920#0" to="8046508"/>
    <trip id="143" depart="102.96" from="553093734" to="-25610550#2"/>
    <trip id="144" depart="103.68" from="14182654" to="-80629291"/>
    <trip id="145" depart="104.40" from="-10278044#2" to="440595795"/>
    <trip id="146" depart="105.12" from="330105528" to="-691705934"/>
    <trip id="147" depart="105.84" from="413744366" to="261606195#0"/>
    <trip id="148" depart="106.56" from="1425303963" to="-1087467966"/>
    <trip id="149" depart="107.28" from="-206579949#2" to="671374979"/>
    <trip id="150" depart="108.00" from="8040375" to="261601152#0"/>
    <trip id="151" depart="108.72" from="520885098" to="27653247#0"/>
    <trip id="152" depart="109.44" from="-369084441#1" to="-32612686#2"/>
    <trip id="153" depart="110.16" from="-E24" to="789390837"/>
    <trip id="154" depart="110.88" from="478472521" to="603756592"/>
    <trip id="155" depart="111.60" from="785198890#0" to="-436666240#1"/>
    <trip id="156" depart="112.32" from="-597375787" to="-261603748#2"/>
    <trip id="157" depart="113.04" from="4444387#0" to="679273382"/>
    <trip id="158" depart="113.76" from="1319821725" to="32209974#0"/>
    <trip id="159" depart="114.48" from="-378655060" to="827086917"/>
    <trip id="160" depart="115.20" from="610022021" to="993040723#0"/>
    <trip id="161" depart="115.92" from="4992149#0" to="65411736"/>
    <trip id="162" depart="116.64" from="-1184574641" to="413440525"/>
    <trip id="163" depart="117.36" from="1085197246" to="83756454"/>
    <trip id="164" depart="118.08" from="484602634" to="610192017#0"/>
    <trip id="165" depart="118.80" from="4992149#0" to="-74072667"/>
    <trip id="166" depart="119.52" from="4444702" to="-262279465"/>
    <trip id="167" depart="120.24" from="610192041#0" to="59202374"/>
    <trip id="168" depart="120.96" from="-488338802" to="5057947"/>
    <trip id="169" depart="121.68" from="185051811#0" to="-E22"/>
    <trip id="170" depart="122.40" from="475546612#0" to="-5038939#2"/>
    <trip id="171" depart="123.12" from="-1178154048" to="-413017425#2"/>
    <trip id="172" depart="123.84" from="10822437#0" to="610192018"/>
    <trip id="173" depart="124.56" from="945632573" to="-8081892"/>
    <trip id="174" depart="125.28" from="33819567#0" to="129375447"/>
    <trip id="175" depart="126.00" from="E19" to="259921926#0"/>
    <trip id="176" depart="126.72" from="902140318" to="-28407873"/>
    <trip id="177" depart="127.44" from="976993243#0" to="-411474410#2"/>
    <trip id="178" depart="128.16" from="939477015" to="-729408527"/>
    <trip id="179" depart="128.88" from="-262279465" to="14889291"/>
    <trip id="180" depart="129.60" from="412150087" to="-E8"/>
    <trip id="181" depart="130.32" from="30711134#0" to="248571490"/>
    <trip id="182" depart="131.04" from="1209848130" to="26333923"/>
    <trip id="183" depart="131.76" from="-610192018" to="411141769"/>
    <trip id="184" depart="132.48" from="-1011871494#2" to="8086887#0"/>
    <trip id="185" depart="133.20" from="259921926#0" to="411596077#0"/>
    <trip id="186" depart="133.92" from="414498694#0" to="370443423"/>
    <trip id="187" depart="134.64" from="1193766735" to="-206121405#2"/>
    <trip id="188" depart="135.36" from="368611216" to="1085197246"/>
    <trip id="189" depart="136.08" from="-E41" to="564299001"/>
    <trip id="190" depart="136.80" from="411579683#0" to="-997494409"/>
    <trip id="191" depart="137.52" from="-E26" to="135154006"/>
    <trip id="192" depart="138.24" from="129375448#0" to="-971927181"/>
    <trip id="193" depart="138.96" from="-322713334" to="14073670"/>
    <trip id="194" depart="139.68" from="902140320" to="377848435#0"/>
    <trip id="195" depart="140.40" from="8039464" to="31724286"/>
    <trip id="196" depart="141.12" from="-992154556" to="261603746#0"/>
    <trip id="197" depart="141.84" from="-1006307950" to="-902140318"/>
    <trip id="198" depart="142.56" from="14337083#0" to="263430078#0"/>
    <trip id="199" depart="143.28" from="367723851" to="196474268"/>
    <trip id="200" depart="144.00" from="15228630" to="-4444685#2"/>
    <trip id="201" depart="144.72" from="206437047" to="8038762"/>
    <trip id="202" depart="145.44" from="478472521" to="-407740157"/>
    <trip id="203" depart="146.16" from="-241074258" to="253015924#0"/>
    <trip id="204" depart="146.88" from="32749870" to="1087025662"/>
    <trip id="205" depart="147.60" from="5057948" to="422140799#0"/>
    <trip id="206" depart="148.32" from="370443423" to="-4964411"/>
    <trip id="207" depart="149.04" from="-414625119" to="-1185325672"/>
    <trip id="208" depart="149.76" from="-564299003" to="222568383"/>
    <trip id="209" depart="150.48" from="564299001" to="-206293853#3"/>
    <trip id="210" depart="151.20" from="1383075408#0" to="32721738#0"/>
    <trip id="211" depart="151.92" from="-413104170#2" to="407322824#0"/>
    <trip id="212" depart="152.64" from="237190957#0" to="-568582017"/>
    <trip id="213" depart="153.36" from="367728196" to="-1064359869"/>
    <trip id="214" depart="154.08" from="420260806#0" to="438410624"/>
    <trip id="215" depart="154.80" from="-261736473#1" to="142491865"/>
    <trip id="216" depart="155.52" from="-411291444" to="93279628#0"/>
    <trip id="217" depart="156.24" from="253015924#2" to="-128882191"/>
    <trip id="218" depart="156.96" from="-5923662#2" to="564299001"/>
    <trip id="219" depart="157.68" from="17429814" to="4923655"/>
    <trip id="220" depart="158.40" from="369945341#0" to="E3"/>
    <trip id="221" depart="159.12" from="29243903#0" to="911248767"/>
    <trip id="222" depart="159.84" from="75097129#0" to="316459829"/>
    <trip id="223" depart="160.56" from="411476235" to="24235670"/>
    <trip id="224" depart="161.28" from="520819503" to="261603746#0"/>
    <trip id="225" depart="162.00" from="784589966#0" to="414625118"/>
    <trip id="226" depart="162.72" from="211085460" to="-65411745"/>
    <trip id="227" depart="163.44" from="-572648481" to="33628871#0"/>
    <trip id="228" depart="164.16" from="429296305" to="25610550#0"/>
    <trip id="229" depart="164.88" from="323020653" to="-80339971"/>
    <trip id="230" depart="165.60" from="-222569243" to="-882466212"/>
    <trip id="231" depart="166.32" from="-75356687" to="1012604824"/>
    <trip id="232" depart="167.04" from="260317795" to="-33827018"/>
    <trip id="233" depart="167.76" from="-5078963#2" to="404461172#0"/>
    <trip id="234" depart="168.48" from="411094913#0" to="-16233355"/>
    <trip id="235" depart="169.20" from="1328177418#0" to="261601146#0"/>
    <trip id="236" depart="169.92" from="13854279" to="-422241948#1"/>
    <trip id="237" depart="170.64" from="1391137664-AddedOffRampEdge" to="8046472"/>
    <trip id="238" depart="171.36" from="27653247#0" to="407322823"/>
    <trip id="239" depart="172.08" from="568582017" to="429299862#0"/>
    <trip id="240" depart="172.80" from="1202822338" to="-1064359869"/>
    <trip id="241" depart="173.52" from="1154739793" to="426415020"/>
    <trip id="242" depart="174.24" from="564299021" to="911266466#0"/>
    <trip id="243" depart="174.96" from="13871627#0" to="420260799"/>
    <trip id="244" depart="175.68" from="261601149#0" to="30711133#0"/>
    <trip id="245" depart="176.40" from="-478516445" to="-478516445"/>
    <trip id="246" depart="177.12" from="14888449#0" to="-1193617512"/>
    <trip id="247" depart="177.84" from="108678064" to="378655060"/>
    <trip id="248" depart="178.56" from="1311060731" to="-407322825"/>
    <trip id="249" depart="179.28" from="196474268" to="-32612686#2"/>
    <trip id="250" depart="180.00" from="32209974#0" to="-1190554043"/>
    <trip id="251" depart="180.72" from="123313358#0" to="261614285"/>
    <trip id="252" depart="181.44" from="-1190554043" to="34147629"/>
    <trip id="253" depart="182.16" from="-330801777#2" to="18858277"/>
    <trip id="254" depart="182.88" from="-128882184" to="1202822340"/>
    <trip id="255" depart="183.60" from="-4443719" to="10822439"/>
    <trip id="256" depart="184.32" from="429041565#0" to="1202822340"/>
    <trip id="257" depart="185.04" from="422024564" to="520885097"/>
    <trip id="258" depart="185.76" from="-610022020" to="-23978798"/>
    <trip id="259" depart="186.48" from="-115658980" to="260837552"/>
    <trip id="260" depart="187.20" from="E9" to="1154739793"/>
    <trip id="261" depart="187.92" from="36003384" to="4444689#0"/>
    <trip id="262" depart="188.64" from="36341380" to="42676070"/>
    <trip id="263" depart="189.36" from="911232540" to="-417558222"/>
    <trip id="264" depart="190.08" from="-1173553500" to="-37374044"/>
    <trip id="265" depart="190.80" from="-322713330" to="370439012"/>
    <trip id="266" depart="191.52" from="261609145#0" to="-478472521"/>
    <trip id="267" depart="192.24" from="407322827" to="430976266#0"/>
    <trip id="268" depart="192.96" from="-407322830" to="31270556"/>
    <trip id="269" depart="193.68" from="420260795#0" to="-28407872#1"/>
    <trip id="270" depart="194.40" from="5057949" to="945632559"/>
    <trip id="271" depart="195.12" from="-262279465" to="-1189741313"/>
    <trip id="272" depart="195.84" from="-E33" to="377848435#0"/>
    <trip id="273" depart="196.56" from="93237627" to="12844877#0"/>
    <trip id="274" depart="197.28" from="411460020" to="-222569243"/>
    <trip id="275" depart="198.00" from="4017602#0" to="32461843"/>
    <trip id="276" depart="198.72" from="-261601153#1" to="443406807"/>
    <trip id="277" depart="199.44" from="564299002" to="30571926#0"/>
    <trip id="278" depart="200.16" from="-31270555#1" to="E23"/>
    <trip id="279" depart="200.88" from="4444688#0" to="1104055508"/>
    <trip id="280" depart="201.60" from="143241607" to="1196308497"/>
    <trip id="281" depart="202.32" from="241074269" to="10976340#0"/>
    <trip id="282" depart="203.04" from="564299001" to="51014349"/>
    <trip id="283" depart="203.76" from="-261614285" to="939477004"/>
    <trip id="284" depart="204.48" from="32896102" to="520819503"/>
    <trip id="285" depart="205.20" from="411094916#0" to="150464340"/>
    <trip id="286" depart="205.92" from="412787353" to="945632563"/>
    <trip id="287" depart="206.64" from="-75221790" to="4992147"/>
    <trip id="288" depart="207.36" from="259921926#0" to="222714552"/>
    <trip id="289" depart="208.08" from="148699157#0" to="412787351"/>
    <trip id="290" depart="208.80" from="-74072667" to="564299021"/>
    <trip id="291" depart="209.52" from="520819503" to="-241074268#2"/>
    <trip id="292" depart="210.24" from="65157094" to="-566361706"/>
    <trip id="293" depart="210.96" from="18858279" to="31458904#0"/>
    <trip id="294" depart="211.68" from="1199237029" to="-1193507489"/>
    <trip id="295" depart="212.40" from="564299003" to="-411596081"/>
    <trip id="296" depart="213.12" from="-4443744#2" to="478516448#0"/>
    <trip id="297" depart="213.84" from="1087199950" to="65157090#0"/>
    <trip id="298" depart="214.56" from="407500703#0" to="-80629291"/>
    <trip id="299" depart="215.28" from="-108965116" to="911221408#0"/>
    <trip id="300" depart="216.00" from="-241074262#2" to="411596081"/>
    <trip id="301" depart="216.72" from="222714920#0" to="429039733"/>
    <trip id="302" depart="217.44" from="4017602#0" to="35872865"/>
    <trip id="303" depart="218.16" from="225619636" to="474433014"/>
    <trip id="304" depart="218.88" from="-25610550#2" to="-4923656"/>
    <trip id="305" depart="219.60" from="404294846" to="-E24"/>
    <trip id="306" depart="220.32" from="263430078#0" to="211085460"/>
    <trip id="307" depart="221.04" from="25690692#0" to="1425303963"/>
    <trip id="308" depart="221.76" from="415624684#0" to="108553549#0"/>
    <trip id="309" depart="222.48" from="407500705#0" to="-76561469"/>
    <trip id="310" depart="223.20" from="-603756592" to="-313684587"/>
    <trip id="311" depart="223.92" from="-413017424" to="-31270550#2"/>
    <trip id="312" depart="224.64" from="259882550" to="429047402"/>
    <trip id="313" depart="225.36" from="-412142122" to="-46835310#2"/>
    <trip id="314" depart="226.08" from="222674284" to="412138231"/>
    <trip id="315" depart="226.80" from="995402842" to="25688336"/>
    <trip id="316" depart="227.52" from="-8111293#3" to="-261601151"/>
    <trip id="317" depart="228.24" from="-413017426" to="-5038939#2"/>
    <trip id="318" depart="228.96" from="-411476230" to="-1104789908"/>
    <trip id="319" depart="229.68" from="259024754" to="-80339971"/>
    <trip id="320" depart="230.40" from="987540145" to="261606204"/>
    <trip id="321" depart="231.12" from="407322823" to="-322713332"/>
    <trip id="322" depart="231.84" from="610192026#0" to="231540136"/>
    <trip id="323" depart="232.56" from="610192045" to="262279466#0"/>
    <trip id="324" depart="233.28" from="206125629#0" to="15228638"/>
    <trip id="325" depart="234.00" from="-412138230" to="-129375448#2"/>
    <trip id="326" depart="234.72" from="902974677" to="222569244"/>
    <trip id="327" depart="235.44" from="5057959#0" to="129375448#0"/>
    <trip id="328" depart="236.16" from="-206293853#3" to="32702148"/>
    <trip id="329" depart="236.88" from="-1328177418#1" to="-369715039"/>
    <trip id="330" depart="237.60" from="261609143" to="-E20"/>
    <trip id="331" depart="238.32" from="E43" to="-30598383"/>
    <trip id="332" depart="239.04" from="429296303#0" to="31270550#0"/>
    <trip id="333" depart="239.76" from="46354251#0" to="-4965736#2"/>
    <trip id="334" depart="240.48" from="25607735#0" to="17103606"/>
    <trip id="335" depart="241.20" from="15228638" to="603756588"/>
    <trip id="336" depart="241.92" from="E32" to="-E23"/>
    <trip id="337" depart="242.64" from="32209550#0" to="31270565#0"/>
    <trip id="338" depart="243.36" from="413677926#0" to="911221407"/>
    <trip id="339" depart="244.08" from="-422241948#1" to="-4443744#2"/>
    <trip id="340" depart="244.80" from="367992749#0" to="-39168906"/>
    <trip id="341" depart="245.52" from="-411141749" to="-210670649"/>
    <trip id="342" depart="246.24" from="-1012604827#2" to="17103606"/>
    <trip id="343" depart="246.96" from="29106577#0" to="-919299300"/>
    <trip id="344" depart="247.68" from="-5078963#2" to="411141749"/>
    <trip id="345" depart="248.40" from="407500705#0" to="17429810"/>
    <trip id="346" depart="249.12" from="4017596#0" to="8082666"/>
    <trip id="347" depart="249.84" from="4444702" to="323020653"/>
    <trip id="348" depart="250.56" from="368462896#0" to="8590786#0"/>
    <trip id="349" depart="251.28" from="14193958" to="261601151"/>
    <trip id="350" depart="252.00" from="35872865" to="8070639"/>
    <trip id="351" depart="252.72" from="5130512#0" to="-206124247#2"/>
    <trip id="352" depart="253.44" from="-407322826#2" to="-E28"/>
    <trip id="353" depart="254.16" from="420260799" to="261740046"/>
    <trip id="354" depart="254.88" from="-902140318" to="-319622469"/>
    <trip id="355" depart="255.60" from="4017598#0" to="407500703#0"/>
    <trip id="356" depart="256.32" from="905221149" to="23978809"/>
    <trip id="357" depart="257.04" from="237190957#0" to="-23978732#2"/>
    <trip id="358" depart="257.76" from="-1220113515" to="146079345#0"/>
    <trip id="359" depart="258.48" from="10278044#0" to="-608127843"/>
    <trip id="360" depart="259.20" from="-24898685" to="939477015"/>
    <trip id="361" depart="259.92" from="5215880" to="262279473#0"/>
    <trip id="362" depart="260.64" from="911248767" to="E9"/>
    <trip id="363" depart="261.36" from="370443423" to="-75221791"/>
    <trip id="364" depart="262.08" from="-12201243#2" to="42784389"/>
    <trip id="365" depart="262.80" from="206125630#0" to="367723394"/>
    <trip id="366" depart="263.52" from="8082130#0" to="-411596081"/>
    <trip id="367" depart="264.24" from="27653256#0" to="329098690"/>
    <trip id="368" depart="264.96" from="226613819" to="-255038402"/>
    <trip id="369" depart="265.68" from="1100566225" to="108678062#0"/>
    <trip id="370" depart="266.40" from="370439009#0" to="59202373"/>
    <trip id="371" depart="267.12" from="10822440#0" to="404461172#0"/>
    <trip id="372" depart="267.84" from="-882466218#2" to="909182762"/>
    <trip id="373" depart="268.56" from="5028392#0" to="261604624#0"/>
    <trip id="374" depart="269.28" from="173530593#0" to="1007099280"/>
    <trip id="375" depart="270.00" from="103844561" to="95785105"/>
    <trip id="376" depart="270.72" from="130655746" to="253014704"/>
    <trip id="377" depart="271.44" from="E3" to="367728205"/>
    <trip id="378" depart="272.16" from="26133642#0" to="13853950#0"/>
    <trip id="379" depart="272.88" from="-412150085#1" to="1193110198"/>
    <trip id="380" depart="273.60" from="42676072" to="323020653"/>
    <trip id="381" depart="274.32" from="429039733" to="-420726939"/>
    <trip id="382" depart="275.04" from="261603745" to="818071876#0"/>
    <trip id="383" depart="275.76" from="15103407" to="407322829"/>
    <trip id="384" depart="276.48" from="-313684587" to="98738626#3"/>
    <trip id="385" depart="277.20" from="31270555#0" to="-553093718"/>
    <trip id="386" depart="277.92" from="-4017593#2" to="261606193"/>
    <trip id="387" depart="278.64" from="261604624#0" to="-256163479"/>
    <trip id="388" depart="279.36" from="E41" to="8081891"/>
    <trip id="389" depart="280.08" from="185080878#0" to="-30412259#2"/>
    <trip id="390" depart="280.80" from="520885094" to="23978806#0"/>
    <trip id="391" depart="281.52" from="411470813#0" to="244043140"/>
    <trip id="392" depart="282.24" from="-772684799" to="523037717"/>
    <trip id="393" depart="282.96" from="E16" to="-566361706"/>
    <trip id="394" depart="283.68" from="261603749" to="1209848130"/>
    <trip id="395" depart="284.40" from="8082583" to="244043140"/>
    <trip id="396" depart="285.12" from="62091754#0" to="610192017#0"/>
    <trip id="397" depart="285.84" from="-80339971" to="46354253"/>
    <trip id="398" depart="286.56" from="13853950#0" to="873203055"/>
    <trip id="399" depart="287.28" from="242451398#0" to="5057959#0"/>
    <trip id="400" depart="288.00" from="-8111293#3" to="-98353745"/>
    <trip id="401" depart="288.72" from="28211729#0" to="E8"/>