<?xml version="1.0" encoding="UTF-8"?>

<routes xmlns:xsi="http://www.w3.org/2001/XMLSchema-instance" xsi:noNamespaceSchemaLocation="http://sumo.dlr.de/xsd/routes_file.xsd">
    <vType id="bus" vClass="bus" accel="1.0" decel="4.5" sigma="0.5" length="12.0"
           minGap="2.5" maxSpeed="25.0" color="1,0,0">
        <param key="has.emissions.device" value="true"/>
    </vType>
    
    <flow id="AVV_Line_3" color="1,1,0"  begin="0" end= "7200" period="300" type="bus" from="4444385#0" to="62091754#0" >
        <stop busStop="bs_1" duration="30.00" friendlyPos="1" />
        <stop busStop="bs_2" duration="30.00" friendlyPos="1" />
        <stop busStop="bs_3" duration="30.00" friendlyPos="1" />
        <stop busStop="bs_4" duration="30.00" friendlyPos="1" />
    </flow>     
    
    <personFlow id="p_12" begin="0" end="7200" period="exp(0.005)">
        <stop busStop="bs_1" />
        <ride busStop="bs_2"/>
    </personFlow>

    <personFlow id="p_13" begin="0" end="7200" period="exp(0.0001)">
        <stop busStop="bs_1" />
        <ride busStop="bs_3"/>
    </personFlow>

    <personFlow id="p_14" begin="0" end="7200" period="exp(0.005)">
        <stop busStop="bs_1" />
        <ride busStop="bs_4"/>
    </personFlow>

    <personFlow id="p_23" begin="0" end="7200" period="exp(0.0001)">
        <stop busStop="bs_2" />
        <ride busStop="bs_3"/>
    </personFlow>

    <personFlow id="p_24" begin="0" end="7200" period="exp(0.02)">
        <stop busStop="bs_2" />
        <ride busStop="bs_3"/>
    </personFlow>

    <personFlow id="p_34" begin="0" end="7200" period="exp(0.0001)">
        <stop busStop="bs_4" />
        <ride busStop="bs_4"/>
    </personFlow>

</routes>
