<?xml version="1.0" encoding="UTF-8"?>

<!-- generated on 2025-09-26 17:45:59.108920 by randomTrips.py v1_23_1+0000-676720d13f6
<configuration>
    <net-file value="C:\Users\joel\TUM\TUM-VT - TCH - MSc Traffic Flow Simulation Extension\W25_26\project\Aachen.net.xml"/>
    <output-trip-file value="C:\Users\joel\TUM\TUM-VT - TCH - MSc Traffic Flow Simulation Extension\W25_26\project\dyn\trips.rou.xml"/>
    <validate value="True"/>
    <end value="7500.0"/>
    <insertion-rate value="6000.0"/>
</configuration>
-->

<!-- generated on 2025-09-26 17:45:57 by Eclipse SUMO duarouter Version 1.23.1
<duarouterConfiguration xmlns:xsi="http://www.w3.org/2001/XMLSchema-instance" xsi:noNamespaceSchemaLocation="http://sumo.dlr.de/xsd/duarouterConfiguration.xsd">

    <input>
        <net-file value="C:\Users\joel\TUM\TUM-VT - TCH - MSc Traffic Flow Simulation Extension\W25_26\project\Aachen.net.xml"/>
        <route-files value="C:\Users\joel\TUM\TUM-VT - TCH - MSc Traffic Flow Simulation Extension\W25_26\project\dyn\trips.rou.xml"/>
    </input>

    <output>
        <output-file value="C:\Users\joel\TUM\TUM-VT - TCH - MSc Traffic Flow Simulation Extension\W25_26\project\dyn\trips.rou.xml.tmp"/>
        <alternatives-output value="NUL"/>
        <write-trips value="true"/>
    </output>

    <time>
        <begin value="0"/>
        <end value="7500.0"/>
    </time>

    <report>
        <no-warnings value="true"/>
        <ignore-errors value="true"/>
        <no-step-log value="true"/>
    </report>

</duarouterConfiguration>
-->

<routes xmlns:xsi="http://www.w3.org/2001/XMLSchema-instance" xsi:noNamespaceSchemaLocation="http://sumo.dlr.de/xsd/routes_file.xsd">
    <!-- Routes -->
    <route id="r_0" edges="-259921927#3 -4553661#2 -24819641#3 4444387#0 1313596279#0 35872865 5012279 62091761#0 222714920#0 146079345#0 222714916#0 222714918#0 222714917#0 1349777341#0 8046215 28758500 440595795 E25"/>
    <route id="r_1" edges="42784389 222577615 222577617 78500972 72102228 440595797 76778527#0 211085460 14184591 1306125519 222714919#0 253521588 206125629#0 206125630#0 259023091#0 1383075408#0 259023092#0 259921926#0 4553661#0 443406807"/>
    <route id="r_2" edges="-259921927#3 -4553661#2 -24819641#3 24655690#0 29246662 1186476285 429047402 261740053#0 29243903#0 429041568#0 29243901 429040220#0 93279843 429039733 261619663 261619667 261619670 E14"/>
    <route id="r_3" edges="E11 261740046 74864596#0 93279631#0 93279628#0 261740047#0 29246665#0 429044449 429044448#0 29246663 261740052#0 24819641#0 4553661#0 443406807"/>
    <!-- Vehicles, persons and containers (sorted by depart) -->
    <flow id="f_0" begin="0.00" route="r_0" end="3600.00" vehsPerHour="200"/>
    <flow id="f_1" begin="0.00" route="r_1" end="3600.00" vehsPerHour="200"/>
    <flow id="f_2" begin="0.00" route="r_2" end="3600.00" vehsPerHour="200"/>
    <flow id="f_3" begin="0.00" route="r_3" end="3600.00" vehsPerHour="200"/>
    <!-- Trips -->
    <trip id="0" depart="0.00" from="33819457" to="-1185325672"/>
    <trip id="1" depart="0.60" from="-78500971" to="-4928833#4"/>
    <trip id="2" depart="1.20" from="413017425#0" to="377848435#0"/>
    <trip id="3" depart="1.80" from="75097129#0" to="-241074268#2"/>
    <trip id="4" depart="2.40" from="13915756" to="-1193766736"/>
    <trip id="5" depart="3.00" from="-478472521" to="24236652#0"/>
    <trip id="6" depart="3.60" from="-1189742822" to="-414625119"/>
    <trip id="7" depart="4.20" from="36003384" to="261601151"/>
    <trip id="8" depart="4.80" from="-478516445" to="28788632#0"/>
    <trip id="9" depart="5.40" from="4975523" to="-1084193495"/>
    <trip id="10" depart="6.00" from="4964411" to="407322829"/>
    <trip id="11" depart="6.60" from="1087199950" to="-379075438#2"/>
    <trip id="12" depart="7.20" from="9277536" to="1087025663"/>
    <trip id="13" depart="7.80" from="-25607735#2" to="-259882549#2"/>
    <trip id="14" depart="8.40" from="564298998" to="30711134#0"/>
    <trip id="15" depart="9.00" from="4964415" to="412787350#0"/>
    <trip id="16" depart="9.60" from="259882554#0" to="98738626#3"/>
    <trip id="17" depart="10.20" from="1199234582" to="261606198#0"/>
    <trip id="18" depart="10.80" from="5168924" to="32209550#0"/>
    <trip id="19" depart="11.40" from="603756588" to="26333924"/>
    <trip id="20" depart="12.00" from="411043309#0" to="-123254035"/>
    <trip id="21" depart="12.60" from="-4992148#2" to="-9097238"/>
    <trip id="22" depart="13.20" from="-237190956#1" to="-520819516#1"/>
    <trip id="23" depart="13.80" from="-261601147" to="-8070343#2"/>
    <trip id="24" depart="14.40" from="329098690" to="1194742739"/>
    <trip id="25" depart="15.00" from="1194935201" to="-431603662#2"/>
    <trip id="26" depart="15.60" from="-729408527" to="8873098"/>
    <trip id="27" depart="16.20" from="36003377" to="31458904#0"/>
    <trip id="28" depart="16.80" from="-411043307" to="412160529"/>
    <trip id="29" depart="17.40" from="-404461172#2" to="1202822339#0"/>
    <trip id="30" depart="18.00" from="E32" to="33829142#0"/>
    <trip id="31" depart="18.60" from="261606213#0" to="4017593#0"/>
    <trip id="32" depart="19.20" from="53208888" to="4443747#0"/>
    <trip id="33" depart="19.80" from="-4992149#2" to="-1199234577"/>
    <trip id="34" depart="20.40" from="-E7" to="-75095612#2"/>
    <trip id="35" depart="21.00" from="-436581184#1" to="907164804"/>
    <trip id="36" depart="21.60" from="610577374#3" to="-E9"/>
    <trip id="37" depart="22.20" from="367728196" to="124804191"/>
    <trip id="38" depart="22.80" from="8082127#0" to="185051811#0"/>
    <trip id="39" depart="23.40" from="-699087325" to="-5762199#2"/>
    <trip id="40" depart="24.00" from="261606242" to="-695652364"/>
    <trip id="41" depart="24.60" from="27653256#0" to="78500972"/>
    <trip id="42" depart="25.20" from="12844877#0" to="-478516445"/>
    <trip id="43" depart="25.80" from="E49" to="244615797#0"/>
    <trip id="44" depart="26.40" from="-24819641#3" to="-124177232#2"/>
    <trip id="45" depart="27.00" from="-263433049#2" to="32612686#0"/>
    <trip id="46" depart="27.60" from="46354255" to="14182654"/>
    <trip id="47" depart="28.20" from="-15229027#1" to="1204768088"/>
    <trip id="48" depart="28.80" from="E47" to="25690693"/>
    <trip id="49" depart="29.40" from="977061374#0" to="603756592"/>
    <trip id="50" depart="30.00" from="-10976340#2" to="411760471"/>
    <trip id="51" depart="30.60" from="379028415" to="260317787"/>
    <trip id="52" depart="31.20" from="-709811298" to="34053933"/>
    <trip id="53" depart="31.80" from="-27653255#2" to="14888449#0"/>
    <trip id="54" depart="32.40" from="17103606" to="911471267"/>
    <trip id="55" depart="33.00" from="610577374#3" to="-699087325"/>
    <trip id="56" depart="33.60" from="23978799#0" to="-411474410#2"/>
    <trip id="57" depart="34.20" from="8081886" to="610192041#0"/>
    <trip id="58" depart="34.80" from="-977061374#2" to="33819567#0"/>
    <trip id="59" depart="35.40" from="31270556" to="-37374044"/>
    <trip id="60" depart="36.00" from="429044448#0" to="260837552"/>
    <trip id="61" depart="36.60" from="4444385#0" to="258080580"/>
    <trip id="62" depart="37.20" from="-1006307950" to="1063259571"/>
    <trip id="63" depart="37.80" from="-115658980" to="820149964"/>
    <trip id="64" depart="38.40" from="61403522#0" to="520885095"/>
    <trip id="65" depart="39.00" from="-E22" to="-14315032"/>
    <trip id="66" depart="39.60" from="61379000" to="911221406#0"/>
    <trip id="67" depart="40.20" from="-241074261" to="222714918#0"/>
    <trip id="68" depart="40.80" from="-173530593#3" to="429044448#0"/>
    <trip id="69" depart="41.40" from="429296305" to="-32721738#1"/>
    <trip id="70" depart="42.00" from="211085460" to="261604624#0"/>
    <trip id="71" depart="42.60" from="-699087325" to="610192047#0"/>
    <trip id="72" depart="43.20" from="14073670" to="-4443744#2"/>
    <trip id="73" depart="43.80" from="260317791" to="412787350#0"/>
    <trip id="74" depart="44.40" from="-417558222" to="-E41"/>
    <trip id="75" depart="45.00" from="E45" to="36341380"/>
    <trip id="76" depart="45.60" from="150464340" to="253521588"/>
    <trip id="77" depart="46.20" from="-31270555#1" to="-4964411"/>
    <trip id="78" depart="46.80" from="1087025662" to="28758500"/>
    <trip id="79" depart="47.40" from="-5057955" to="-48144056#2"/>
    <trip id="80" depart="48.00" from="-206121404#2" to="328115147"/>
    <trip id="81" depart="48.60" from="-4992149#2" to="8046472"/>
    <trip id="82" depart="49.20" from="59202373" to="-206121410"/>
    <trip id="83" depart="49.80" from="-546342017" to="370439012"/>
    <trip id="84" depart="50.40" from="-4443747#1" to="-329962300"/>
    <trip id="85" depart="51.00" from="8745371#0" to="261740053#0"/>
    <trip id="86" depart="51.60" from="206293853#0" to="4444697#0"/>
    <trip id="87" depart="52.20" from="4965736#0" to="-412787352"/>
    <trip id="88" depart="52.80" from="-259882548#2" to="14338197"/>
    <trip id="89" depart="53.40" from="1412536768" to="206121410"/>
    <trip id="90" depart="54.00" from="412155346#0" to="37138338"/>
    <trip id="91" depart="54.60" from="E24" to="-26133642#2"/>
    <trip id="92" depart="55.20" from="129375447" to="1087539272"/>
    <trip id="93" depart="55.80" from="603756588" to="-597375787"/>
    <trip id="94" depart="56.40" from="-412787350#2" to="166272322"/>
    <trip id="95" depart="57.00" from="13915756" to="-8081883"/>
    <trip id="96" depart="57.60" from="-597375787" to="8082647"/>
    <trip id="97" depart="58.20" from="15228630" to="608729165#0"/>
    <trip id="98" depart="58.80" from="261603748#0" to="-128882191"/>
    <trip id="99" depart="59.40" from="E8" to="523037720"/>
    <trip id="100" depart="60.00" from="95642216" to="8111293#0"/>
    <trip id="101" depart="60.60" from="564298999" to="-407322826#2"/>
    <trip id="102" depart="61.20" from="222714552" to="-4444390#3"/>
    <trip id="103" depart="61.80" from="129375445" to="-144005341"/>
    <trip id="104" depart="62.40" from="1199234582" to="E25"/>
    <trip id="105" depart="63.00" from="-699087325" to="4444696#0"/>
    <trip id="106" depart="63.60" from="17103658" to="14184591"/>
    <trip id="107" depart="64.20" from="9277536" to="E46"/>
    <trip id="108" depart="64.80" from="261606206" to="411582351"/>
    <trip id="109" depart="65.40" from="-378655060" to="-977061374#2"/>
    <trip id="110" depart="66.00" from="954188616" to="263430075#0"/>
    <trip id="111" depart="66.60" from="261223999" to="420260801"/>
    <trip id="112" depart="67.20" from="-142419917#1" to="28211729#0"/>
    <trip id="113" depart="67.80" from="23978809" to="566361706"/>
    <trip id="114" depart="68.40" from="-39145365" to="939477004"/>
    <trip id="115" depart="69.00" from="-237190957#3" to="-412142122"/>
    <trip id="116" depart="69.60" from="29243903#0" to="372613192#0"/>
    <trip id="117" depart="70.20" from="-520885098" to="-31270550#2"/>
    <trip id="118" depart="70.80" from="74072700" to="-5762199#2"/>
    <trip id="119" depart="71.40" from="29243903#0" to="32209972"/>
    <trip id="120" depart="72.00" from="13866707#0" to="27865722"/>
    <trip id="121" depart="72.60" from="25610550#0" to="8745371#0"/>
    <trip id="122" depart="73.20" from="-420300229#2" to="411476230"/>
    <trip id="123" depart="73.80" from="-546398680" to="124804191"/>
    <trip id="124" depart="74.40" from="370439013#0" to="-9930918"/>
    <trip id="125" depart="75.00" from="-E8" to="422141867#0"/>
    <trip id="126" depart="75.60" from="-206121410" to="185051806#0"/>
    <trip id="127" depart="76.20" from="E7" to="E47"/>
    <trip id="128" depart="76.80" from="-206124247#2" to="-4443747#1"/>
    <trip id="129" depart="77.40" from="-699087325" to="8590786#0"/>
    <trip id="130" depart="78.00" from="633892178#0" to="633892178#0"/>
    <trip id="131" depart="78.60" from="1194935199" to="-39168906"/>
    <trip id="132" depart="79.20" from="520885097" to="411078896#0"/>
    <trip id="133" depart="79.80" from="31533524#0" to="E29"/>
    <trip id="134" depart="80.40" from="367723851" to="-108553549#3"/>
    <trip id="135" depart="81.00" from="5047996#0" to="-992154556"/>
    <trip id="136" depart="81.60" from="368611216" to="902140319"/>
    <trip id="137" depart="82.20" from="-330102539#3" to="-28407873"/>
    <trip id="138" depart="82.80" from="-261740057#2" to="261606204"/>
    <trip id="139" depart="83.40" from="-76561469" to="31270549#0"/>
    <trip id="140" depart="84.00" from="411476230" to="-420300229#2"/>
    <trip id="141" depart="84.60" from="328469246" to="-708520110"/>
    <trip id="142" depart="85.20" from="222714919#0" to="8046472"/>
    <trip id="143" depart="85.80" from="553093734" to="-25607735#2"/>
    <trip id="144" depart="86.40" from="1412536768" to="-80629291"/>
    <trip id="145" depart="87.00" from="-10278044#2" to="440595795"/>
    <trip id="146" depart="87.60" from="331863253#0" to="-691705934"/>
    <trip id="147" depart="88.20" from="413744367" to="261606198#0"/>
    <trip id="148" depart="88.80" from="142491865" to="-1087467966"/>
    <trip id="149" depart="89.40" from="-206437047" to="671374979"/>
    <trip id="150" depart="90.00" from="8039465" to="261601152#0"/>
    <trip id="151" depart="90.60" from="520885098" to="27653247#0"/>
    <trip id="152" depart="91.20" from="-369084441#1" to="-322713334"/>
    <trip id="153" depart="91.80" from="-E23" to="789390837"/>
    <trip id="154" depart="92.40" from="478472521" to="603756592"/>
    <trip id="155" depart="93.00" from="78500972" to="-436581184#1"/>
    <trip id="156" depart="93.60" from="-5923662#2" to="-261603748#2"/>
    <trip id="157" depart="94.20" from="4444390#0" to="674277105"/>
    <trip id="158" depart="94.80" from="1319821722" to="32209976"/>
    <trip id="159" depart="95.40" from="-378655055#1" to="827086917"/>
    <trip id="160" depart="96.00" from="610022021" to="995402842"/>
    <trip id="161" depart="96.60" from="4992149#0" to="65157094"/>
    <trip id="162" depart="97.20" from="-1184574641" to="413440525"/>
    <trip id="163" depart="97.80" from="1084193493" to="83756454"/>
    <trip id="164" depart="98.40" from="484602634" to="610192017#0"/>
    <trip id="165" depart="99.00" from="4992149#0" to="-74072667"/>
    <trip id="166" depart="99.60" from="4444702" to="-262279465"/>
    <trip id="167" depart="100.20" from="610192041#0" to="59202374"/>
    <trip id="168" depart="100.80" from="-488338802" to="5057947"/>
    <trip id="169" depart="101.40" from="185051806#0" to="-E22"/>
    <trip id="170" depart="102.00" from="475546612#0" to="-5038939#2"/>
    <trip id="171" depart="102.60" from="-1178154048" to="-413017425#2"/>
    <trip id="172" depart="103.20" from="1081191110" to="610192017#0"/>
    <trip id="173" depart="103.80" from="945632573" to="-8081892"/>
    <trip id="174" depart="104.40" from="33829142#0" to="129375446"/>
    <trip id="175" depart="105.00" from="E19" to="259921926#0"/>
    <trip id="176" depart="105.60" from="902140319" to="-28407873"/>
    <trip id="177" depart="106.20" from="976993243#0" to="-411470813#2"/>
    <trip id="178" depart="106.80" from="939477015" to="-729408527"/>
    <trip id="179" depart="107.40" from="-262279465" to="14888449#0"/>
    <trip id="180" depart="108.00" from="412155346#0" to="-E8"/>
    <trip id="181" depart="108.60" from="31193704" to="248571490"/>
    <trip id="182" depart="109.20" from="1208289374" to="26333923"/>
    <trip id="183" depart="109.80" from="-610192018" to="411141769"/>
    <trip id="184" depart="110.40" from="-1011871494#2" to="8086887#0"/>
    <trip id="185" depart="111.00" from="260317787" to="411596077#0"/>
    <trip id="186" depart="111.60" from="414498694#0" to="370443423"/>
    <trip id="187" depart="112.20" from="1193110198" to="-206121404#2"/>
    <trip id="188" depart="112.80" from="369084441#0" to="1085197246"/>
    <trip id="189" depart="113.40" from="-E41" to="564299001"/>
    <trip id="190" depart="114.00" from="411579683#0" to="-997494409"/>
    <trip id="191" depart="114.60" from="-E26" to="135154005"/>
    <trip id="192" depart="115.20" from="129375447" to="-971927181"/>
    <trip id="193" depart="115.80" from="-322713332" to="14036945#0"/>
    <trip id="194" depart="116.40" from="902140320" to="378655055#0"/>
    <trip id="195" depart="117.00" from="8038762" to="31825045#0"/>
    <trip id="196" depart="117.60" from="-98353745" to="261603746#0"/>
    <trip id="197" depart="118.20" from="-1006307950" to="-882466218#2"/>
    <trip id="198" depart="118.80" from="14328265" to="263430078#0"/>
    <trip id="199" depart="119.40" from="367728194" to="196474268"/>
    <trip id="200" depart="120.00" from="15228628#0" to="-4444390#3"/>
    <trip id="201" depart="120.60" from="206437047" to="8038403#0"/>
    <trip id="202" depart="121.20" from="478472521" to="-407500705#2"/>
    <trip id="203" depart="121.80" from="-241074258" to="253015924#0"/>
    <trip id="204" depart="122.40" from="328115147" to="1087025658"/>
    <trip id="205" depart="123.00" from="5057948" to="422140799#0"/>
    <trip id="206" depart="123.60" from="370582479#0" to="-4964411"/>
    <trip id="207" depart="124.20" from="-414625118" to="-1184574641"/>
    <trip id="208" depart="124.80" from="-564299003" to="222568383"/>
    <trip id="209" depart="125.40" from="564299001" to="-206293853#3"/>
    <trip id="210" depart="126.00" from="1375588339" to="32732940#0"/>
    <trip id="211" depart="126.60" from="-413017426" to="407322824#0"/>
    <trip id="212" depart="127.20" from="237190957#0" to="-566361706"/>
    <trip id="213" depart="127.80" from="367728199" to="-1064359869"/>
    <trip id="214" depart="128.40" from="420260806#0" to="438410624"/>
    <trip id="215" depart="129.00" from="-261736473#1" to="142419917#0"/>
    <trip id="216" depart="129.60" from="-411141766#1" to="93279628#0"/>
    <trip id="217" depart="130.20" from="253015924#2" to="-128882184"/>
    <trip id="218" depart="130.80" from="-5923662#2" to="564299001"/>
    <trip id="219" depart="131.40" from="17429814" to="4923655"/>
    <trip id="220" depart="132.00" from="369945341#0" to="E3"/>
    <trip id="221" depart="132.60" from="29246662" to="911248767"/>
    <trip id="222" depart="133.20" from="75095612#0" to="316459832"/>
    <trip id="223" depart="133.80" from="411476235" to="24235670"/>
    <trip id="224" depart="134.40" from="520819503" to="261603746#0"/>
    <trip id="225" depart="135.00" from="784589966#0" to="414625118"/>
    <trip id="226" depart="135.60" from="206579949#0" to="-633892178#2"/>
    <trip id="227" depart="136.20" from="-572648481" to="33819457"/>
    <trip id="228" depart="136.80" from="429296305" to="25624833#0"/>
    <trip id="229" depart="137.40" from="323020653" to="-80339971"/>
    <trip id="230" depart="138.00" from="-222569243" to="-882466212"/>
    <trip id="231" depart="138.60" from="-75356687" to="1012604824"/>
    <trip id="232" depart="139.20" from="260317795" to="-33827018"/>
    <trip id="233" depart="139.80" from="-5078963#2" to="404789179"/>
    <trip id="234" depart="140.40" from="411094913#0" to="-16233355"/>
    <trip id="235" depart="141.00" from="1328177416" to="261601146#0"/>
    <trip id="236" depart="141.60" from="13853950#0" to="-422195857"/>
    <trip id="237" depart="142.20" from="1391137664" to="8046472"/>
    <trip id="238" depart="142.80" from="27653247#0" to="407322823"/>
    <trip id="239" depart="143.40" from="568582017" to="429299862#0"/>
    <trip id="240" depart="144.00" from="1201709790" to="-1064359869"/>
    <trip id="241" depart="144.60" from="1153024461#0" to="426415020"/>
    <trip id="242" depart="145.20" from="564299021" to="911266466#0"/>
    <trip id="243" depart="145.80" from="13866707#0" to="420260801"/>
    <trip id="244" depart="146.40" from="261601149#0" to="30711134#0"/>
    <trip id="245" depart="147.00" from="-478516445" to="-478516445"/>
    <trip id="246" depart="147.60" from="147260600" to="-1193507489"/>
    <trip id="247" depart="148.20" from="108678062#0" to="378655060"/>
    <trip id="248" depart="148.80" from="130655746" to="-407322824#1"/>
    <trip id="249" depart="149.40" from="196474268" to="-322713334"/>
    <trip id="250" depart="150.00" from="32209976" to="-1190554043"/>
    <trip id="251" depart="150.60" from="123309218" to="261614285"/>
    <trip id="252" depart="151.20" from="-1190554043" to="34147629"/>
    <trip id="253" depart="151.80" from="-330133127#2" to="18858277"/>
    <trip id="254" depart="152.40" from="-128882184" to="1202822339#0"/>
    <trip id="255" depart="153.00" from="-436666240#1" to="10822439"/>
    <trip id="256" depart="153.60" from="429041565#0" to="1202822339#0"/>
    <trip id="257" depart="154.20" from="422024564" to="520885095"/>
    <trip id="258" depart="154.80" from="-608127843" to="-23978747"/>
    <trip id="259" depart="155.40" from="-115658980" to="260837552"/>
    <trip id="260" depart="156.00" from="E9" to="1154739793"/>
    <trip id="261" depart="156.60" from="360265408#0" to="4444689#0"/>
    <trip id="262" depart="157.20" from="36341380" to="42676070"/>
    <trip id="263" depart="157.80" from="911232540" to="-415624684#2"/>
    <trip id="264" depart="158.40" from="-1173553500" to="-372613192#2"/>
    <trip id="265" depart="159.00" from="-322713330" to="370439013#0"/>
    <trip id="266" depart="159.60" from="261609145#0" to="-478472521"/>
    <trip id="267" depart="160.20" from="407322827" to="430976266#0"/>
    <trip id="268" depart="160.80" from="-407322830" to="31270557#0"/>
    <trip id="269" depart="161.40" from="420260795#0" to="-28407872#1"/>
    <trip id="270" depart="162.00" from="5057949" to="945632559"/>
    <trip id="271" depart="162.60" from="-26180560" to="-1189741313"/>
    <trip id="272" depart="163.20" from="-E33" to="378655055#0"/>
    <trip id="273" depart="163.80" from="93237627" to="1267941939"/>
    <trip id="274" depart="164.40" from="411460020" to="-222568385#2"/>
    <trip id="275" depart="165.00" from="4017602#0" to="32612686#0"/>
    <trip id="276" depart="165.60" from="-261601153#1" to="443406807"/>
    <trip id="277" depart="166.20" from="564299002" to="30598383"/>
    <trip id="278" depart="166.80" from="-31270555#1" to="E23"/>
    <trip id="279" depart="167.40" from="4444688#0" to="1104055505"/>
    <trip id="280" depart="168.00" from="1425303963" to="1196308487"/>
    <trip id="281" depart="168.60" from="241074269" to="109507186#0"/>
    <trip id="282" depart="169.20" from="564299001" to="51014349"/>
    <trip id="283" depart="169.80" from="-261606239" to="939477004"/>
    <trip id="284" depart="170.40" from="329098690" to="520819503"/>
    <trip id="285" depart="171.00" from="411094916#0" to="14889291"/>
    <trip id="286" depart="171.60" from="412787353" to="945632563"/>
    <trip id="287" depart="172.20" from="-75103089" to="4975523"/>
    <trip id="288" depart="172.80" from="259921926#0" to="222714552"/>
    <trip id="289" depart="173.40" from="147260600" to="412787352"/>
    <trip id="290" depart="174.00" from="-74072667" to="564299016"/>
    <trip id="291" depart="174.60" from="520819503" to="-241074268#2"/>
    <trip id="292" depart="175.20" from="65157090#0" to="-566361706"/>
    <trip id="293" depart="175.80" from="18858279" to="31533524#0"/>
    <trip id="294" depart="176.40" from="1199234582" to="-1193507489"/>
    <trip id="295" depart="177.00" from="564299003" to="-411582351"/>
    <trip id="296" depart="177.60" from="-4443719" to="478516448#0"/>
    <trip id="297" depart="178.20" from="1087199950" to="65157090#0"/>
    <trip id="298" depart="178.80" from="407500703#0" to="-8046508"/>
    <trip id="299" depart="179.40" from="-108965116" to="911221408#0"/>
    <trip id="300" depart="180.00" from="-241074261" to="411596081"/>
    <trip id="301" depart="180.60" from="222714919#0" to="429039733"/>
    <trip id="302" depart="181.20" from="4017602#0" to="36003376"/>
    <trip id="303" depart="181.80" from="225619636" to="474433014"/>
    <trip id="304" depart="182.40" from="-25607735#2" to="-4923656"/>
    <trip id="305" depart="183.00" from="404294847" to="-E23"/>
    <trip id="306" depart="183.60" from="263430078#0" to="211085460"/>
    <trip id="307" depart="184.20" from="25690692#0" to="142491865"/>
    <trip id="308" depart="184.80" from="415624684#0" to="108553549#0"/>
    <trip id="309" depart="185.40" from="411043306#0" to="-76561469"/>
    <trip id="310" depart="186.00" from="-603756592" to="-31270555#1"/>
    <trip id="311" depart="186.60" from="-412794345#2" to="-31270549#2"/>
    <trip id="312" depart="187.20" from="259882554#0" to="429047402"/>
    <trip id="313" depart="187.80" from="-412138230" to="-4553661#2"/>
    <trip id="314" depart="188.40" from="222674284" to="412138231"/>
    <trip id="315" depart="189.00" from="995402842" to="25689907"/>
    <trip id="316" depart="189.60" from="-8111293#3" to="-261601147"/>
    <trip id="317" depart="190.20" from="-413017425#2" to="-4992149#2"/>
    <trip id="318" depart="190.80" from="-411474410#2" to="-1104789908"/>
    <trip id="319" depart="191.40" from="259024754" to="-79078038#2"/>
    <trip id="320" depart="192.00" from="987811502" to="261606204"/>
    <trip id="321" depart="192.60" from="407322823" to="-322713330"/>
    <trip id="322" depart="193.20" from="610192025" to="231540136"/>
    <trip id="323" depart="193.80" from="610192045" to="262279466#0"/>
    <trip id="324" depart="194.40" from="206121410" to="15228628#0"/>
    <trip id="325" depart="195.00" from="-411925378#2" to="-129375448#2"/>
    <trip id="326" depart="195.60" from="902974677" to="222569244"/>
    <trip id="327" depart="196.20" from="5057959#0" to="129375447"/>
    <trip id="328" depart="196.80" from="-206293853#3" to="32721738#0"/>
    <trip id="329" depart="197.40" from="-1328177418#1" to="-369312516"/>
    <trip id="330" depart="198.00" from="261609144" to="-E20"/>
    <trip id="331" depart="198.60" from="E43" to="-30598383"/>
    <trip id="332" depart="199.20" from="429296303#0" to="31270555#0"/>
    <trip id="333" depart="199.80" from="46354251#0" to="-4965736#2"/>
    <trip id="334" depart="200.40" from="25610550#0" to="17103605#0"/>
    <trip id="335" depart="201.00" from="15228630" to="603756588"/>
    <trip id="336" depart="201.60" from="E32" to="-E22"/>
    <trip id="337" depart="202.20" from="32209972" to="31458904#0"/>
    <trip id="338" depart="202.80" from="413677926#0" to="911221407"/>
    <trip id="339" depart="203.40" from="-422195857" to="-4443719"/>
    <trip id="340" depart="204.00" from="367992749#0" to="-39145365"/>
    <trip id="341" depart="204.60" from="-411141737" to="-210670649"/>
    <trip id="342" depart="205.20" from="-1012604827#2" to="17103605#0"/>
    <trip id="343" depart="205.80" from="29243901" to="-919299300"/>
    <trip id="344" depart="206.40" from="-5078963#2" to="411141749"/>
    <trip id="345" depart="207.00" from="411043306#0" to="17429810"/>
    <trip id="346" depart="207.60" from="4017596#0" to="8082650"/>
    <trip id="347" depart="208.20" from="4444702" to="323020658"/>
    <trip id="348" depart="208.80" from="368462898" to="8590786#0"/>
    <trip id="349" depart="209.40" from="14184591" to="261601151"/>
    <trip id="350" depart="210.00" from="36003376" to="8070343#0"/>
    <trip id="351" depart="210.60" from="5130512#0" to="-206121410"/>
    <trip id="352" depart="211.20" from="-407322825" to="-E28"/>
    <trip id="353" depart="211.80" from="420260799" to="261740046"/>
    <trip id="354" depart="212.40" from="-882466218#2" to="-319622469"/>
    <trip id="355" depart="213.00" from="4017598#0" to="407500703#0"/>
    <trip id="356" depart="213.60" from="905221150" to="23978808#0"/>
    <trip id="357" depart="214.20" from="237190956#0" to="-23952534"/>
    <trip id="358" depart="214.80" from="-1220113515" to="146071355#0"/>
    <trip id="359" depart="215.40" from="1012604824" to="-608127843"/>
    <trip id="360" depart="216.00" from="-24898685" to="939477015"/>
    <trip id="361" depart="216.60" from="5215880" to="262279473#0"/>
    <trip id="362" depart="217.20" from="911248767" to="E9"/>
    <trip id="363" depart="217.80" from="370443423" to="-75221791"/>
    <trip id="364" depart="218.40" from="-1220113515" to="42784389"/>
    <trip id="365" depart="219.00" from="206125630#0" to="367723404"/>
    <trip id="366" depart="219.60" from="8082129#0" to="-411582351"/>
    <trip id="367" depart="220.20" from="27865722" to="330105528"/>
    <trip id="368" depart="220.80" from="226613819" to="-24898685"/>
    <trip id="369" depart="221.40" from="1100566223" to="108673908"/>
    <trip id="370" depart="222.00" from="370439010" to="5762199#0"/>
    <trip id="371" depart="222.60" from="10822440#0" to="404461172#0"/>
    <trip id="372" depart="223.20" from="-882466218#2" to="9097238"/>
    <trip id="373" depart="223.80" from="5028392#0" to="261604624#0"/>
    <trip id="374" depart="224.40" from="17103658" to="-E9"/>
    <trip id="375" depart="225.00" from="10300180#0" to="95785105"/>
    <trip id="376" depart="225.60" from="1306125519" to="253014704"/>
    <trip id="377" depart="226.20" from="E30" to="367992748"/>
    <trip id="378" depart="226.80" from="26133642#0" to="1383075408#0"/>
    <trip id="379" depart="227.40" from="-412150080#2" to="1193110198"/>
    <trip id="380" depart="228.00" from="42676072" to="323020658"/>
    <trip id="381" depart="228.60" from="429039733" to="-420300229#2"/>
    <trip id="382" depart="229.20" from="261603745" to="818071876#0"/>
    <trip id="383" depart="229.80" from="150464340" to="407322829"/>