<additional>
    <edgeData id="edge_performance"
              file="edge_data.xml"
              begin="0"
              end="7200"
              freq="600"/>

    <laneData id="lane_performance"
              file="lane_data.xml"
              begin="0"
              end="7200"
              freq="600"/>
</additional>
