<?xml version="1.0" encoding="UTF-8"?>

<!-- generated on 2025-12-16 11:46:20 by Eclipse SUMO od2trips Version 1.23.1
<od2tripsConfiguration xmlns:xsi="http://www.w3.org/2001/XMLSchema-instance" xsi:noNamespaceSchemaLocation="http://sumo.dlr.de/xsd/od2tripsConfiguration.xsd">

    <input>
        <taz-files value="networks\SiouxFalls\tazes.taz.xml"/>
        <od-matrix-files value="cache\od_updated.txt"/>
    </input>

    <output>
        <output-prefix value="0"/>
        <output-file value="cache\upd_od_trips.trips.xml"/>
    </output>

    <processing>
        <spread.uniform value="true"/>
        <no-step-log value="true"/>
    </processing>

    <random_number>
        <seed value="17494"/>
    </random_number>

</od2tripsConfiguration>
-->

<routes xmlns:xsi="http://www.w3.org/2001/XMLSchema-instance" xsi:noNamespaceSchemaLocation="http://sumo.dlr.de/xsd/routes_file.xsd">
    <trip id="1465" depart="28806.00" from="#EdgeID68" to="#EdgeID52" fromTaz="22" toTaz="17" departLane="free" departSpeed="max"/>
    <trip id="1009" depart="28806.04" from="#EdgeID64" to="#EdgeID68" fromTaz="21" toTaz="22" departLane="free" departSpeed="max"/>
    <trip id="1882" depart="28807.11" from="#EdgeID70" to="#EdgeID73" fromTaz="22" toTaz="23" departLane="free" departSpeed="max"/>
    <trip id="442" depart="28811.25" from="#EdgeID51" to="#EdgeID69" fromTaz="17" toTaz="22" departLane="free" departSpeed="max"/>
    <trip id="71" depart="28815.25" from="#EdgeID38" to="#EdgeID68" fromTaz="13" toTaz="22" departLane="free" departSpeed="max"/>
    <trip id="2890" depart="28816.51" from="#EdgeID18" to="#EdgeID51" fromTaz="7" toTaz="17" departLane="free" departSpeed="max"/>
    <trip id="1775" depart="28816.82" from="#EdgeID70" to="#EdgeID64" fromTaz="22" toTaz="21" departLane="free" departSpeed="max"/>
    <trip id="1466" depart="28818.00" from="#EdgeID69" to="#EdgeID51" fromTaz="22" toTaz="17" departLane="free" departSpeed="max"/>
    <trip id="1010" depart="28818.12" from="#EdgeID65" to="#EdgeID68" fromTaz="21" toTaz="22" departLane="free" departSpeed="max"/>
    <trip id="1883" depart="28821.34" from="#EdgeID70" to="#EdgeID72" fromTaz="22" toTaz="23" departLane="free" departSpeed="max"/>
    <trip id="722" depart="28821.95" from="#EdgeID52" to="#EdgeID16" fromTaz="17" toTaz="6" departLane="free" departSpeed="max"/>
    <trip id="2226" depart="28823.08" from="#EdgeID73" to="#EdgeID39" fromTaz="23" toTaz="13" departLane="free" departSpeed="max"/>
    <trip id="189" depart="28824.66" from="#EdgeID38" to="#EdgeID73" fromTaz="13" toTaz="23" departLane="free" departSpeed="max"/>
    <trip id="602" depart="28824.66" from="#EdgeID52" to="#EdgeID72" fromTaz="17" toTaz="23" departLane="free" departSpeed="max"/>
    <trip id="1396" depart="28826.09" from="#EdgeID69" to="#EdgeID39" fromTaz="22" toTaz="13" departLane="free" departSpeed="max"/>
    <trip id="323" depart="28827.69" from="#EdgeID53" to="#EdgeID38" fromTaz="17" toTaz="13" departLane="free" departSpeed="max"/>
    <trip id="2304" depart="28828.13" from="#EdgeID71" to="#EdgeID51" fromTaz="23" toTaz="17" departLane="free" departSpeed="max"/>
    <trip id="2458" depart="28829.03" from="#EdgeID73" to="#EdgeID8" fromTaz="23" toTaz="4" departLane="free" departSpeed="max"/>
    <trip id="1467" depart="28830.00" from="#EdgeID68" to="#EdgeID52" fromTaz="22" toTaz="17" departLane="free" departSpeed="max"/>
    <trip id="1011" depart="28830.20" from="#EdgeID65" to="#EdgeID68" fromTaz="21" toTaz="22" departLane="free" departSpeed="max"/>
    <trip id="443" depart="28833.75" from="#EdgeID53" to="#EdgeID69" fromTaz="17" toTaz="22" departLane="free" departSpeed="max"/>
    <trip id="1884" depart="28835.57" from="#EdgeID69" to="#EdgeID73" fromTaz="22" toTaz="23" departLane="free" departSpeed="max"/>
    <trip id="675" depart="28838.30" from="#EdgeID53" to="#EdgeID9" fromTaz="17" toTaz="4" departLane="free" departSpeed="max"/>
    <trip id="2745" depart="28839.13" from="#EdgeID15" to="#EdgeID51" fromTaz="6" toTaz="17" departLane="free" departSpeed="max"/>
    <trip id="2413" depart="28840.00" from="#EdgeID71" to="#EdgeID69" fromTaz="23" toTaz="22" departLane="free" departSpeed="max"/>
    <trip id="1468" depart="28842.00" from="#EdgeID70" to="#EdgeID53" fromTaz="22" toTaz="17" departLane="free" departSpeed="max"/>
    <trip id="1012" depart="28842.28" from="#EdgeID64" to="#EdgeID69" fromTaz="21" toTaz="22" departLane="free" departSpeed="max"/>
    <trip id="2371" depart="28842.86" from="#EdgeID71" to="#EdgeID65" fromTaz="23" toTaz="21" departLane="free" departSpeed="max"/>
    <trip id="3045" depart="28842.86" from="#EdgeID18" to="#EdgeID69" fromTaz="7" toTaz="22" departLane="free" departSpeed="max"/>
    <trip id="960" depart="28843.90" from="#EdgeID64" to="#EdgeID53" fromTaz="21" toTaz="17" departLane="free" departSpeed="max"/>
    <trip id="1307" depart="28845.00" from="#EdgeID66" to="#EdgeID71" fromTaz="21" toTaz="23" departLane="free" departSpeed="max"/>
    <trip id="2643" depart="28845.00" from="#EdgeID8" to="#EdgeID71" fromTaz="4" toTaz="23" departLane="free" departSpeed="max"/>
    <trip id="873" depart="28845.00" from="#EdgeID56" to="#EdgeID67" fromTaz="18" toTaz="22" departLane="free" departSpeed="max"/>
    <trip id="72" depart="28845.76" from="#EdgeID39" to="#EdgeID68" fromTaz="13" toTaz="22" departLane="free" departSpeed="max"/>
    <trip id="804" depart="28848.65" from="#EdgeID52" to="#EdgeID18" fromTaz="17" toTaz="7" departLane="free" departSpeed="max"/>
    <trip id="2891" depart="28849.54" from="#EdgeID17" to="#EdgeID51" fromTaz="7" toTaz="17" departLane="free" departSpeed="max"/>
    <trip id="1885" depart="28849.80" from="#EdgeID68" to="#EdgeID71" fromTaz="22" toTaz="23" departLane="free" departSpeed="max"/>
    <trip id="2563" depart="28850.00" from="#EdgeID9" to="#EdgeID51" fromTaz="4" toTaz="17" departLane="free" departSpeed="max"/>
    <trip id="35" depart="28850.00" from="#EdgeID39" to="#EdgeID65" fromTaz="13" toTaz="21" departLane="free" departSpeed="max"/>
    <trip id="1776" depart="28850.47" from="#EdgeID69" to="#EdgeID65" fromTaz="22" toTaz="21" departLane="free" departSpeed="max"/>
    <trip id="2166" depart="28852.94" from="#EdgeID70" to="#EdgeID16" fromTaz="22" toTaz="6" departLane="free" departSpeed="max"/>
    <trip id="1469" depart="28854.00" from="#EdgeID67" to="#EdgeID51" fromTaz="22" toTaz="17" departLane="free" departSpeed="max"/>
    <trip id="1013" depart="28854.36" from="#EdgeID66" to="#EdgeID69" fromTaz="21" toTaz="22" departLane="free" departSpeed="max"/>
    <trip id="444" depart="28856.25" from="#EdgeID52" to="#EdgeID68" fromTaz="17" toTaz="22" departLane="free" departSpeed="max"/>
    <trip id="2135" depart="28858.06" from="#EdgeID69" to="#EdgeID10" fromTaz="22" toTaz="4" departLane="free" departSpeed="max"/>
    <trip id="0" depart="28860.00" from="#EdgeID38" to="#EdgeID52" fromTaz="13" toTaz="17" departLane="free" departSpeed="max"/>
    <trip id="2613" depart="28860.00" from="#EdgeID10" to="#EdgeID67" fromTaz="4" toTaz="22" departLane="free" departSpeed="max"/>
    <trip id="412" depart="28860.00" from="#EdgeID53" to="#EdgeID64" fromTaz="17" toTaz="21" departLane="free" departSpeed="max"/>
    <trip id="1886" depart="28864.03" from="#EdgeID68" to="#EdgeID71" fromTaz="22" toTaz="23" departLane="free" departSpeed="max"/>
    <trip id="2528" depart="28864.29" from="#EdgeID73" to="#EdgeID17" fromTaz="23" toTaz="7" departLane="free" departSpeed="max"/>
    <trip id="2862" depart="28864.29" from="#EdgeID17" to="#EdgeID39" fromTaz="7" toTaz="13" departLane="free" departSpeed="max"/>
    <trip id="3109" depart="28864.29" from="#EdgeID17" to="#EdgeID10" fromTaz="7" toTaz="4" departLane="free" departSpeed="max"/>
    <trip id="723" depart="28865.85" from="#EdgeID51" to="#EdgeID14" fromTaz="17" toTaz="6" departLane="free" departSpeed="max"/>
    <trip id="1470" depart="28866.00" from="#EdgeID70" to="#EdgeID52" fromTaz="22" toTaz="17" departLane="free" departSpeed="max"/>
    <trip id="1014" depart="28866.44" from="#EdgeID64" to="#EdgeID69" fromTaz="21" toTaz="22" departLane="free" departSpeed="max"/>
    <trip id="2999" depart="28866.67" from="#EdgeID18" to="#EdgeID56" fromTaz="7" toTaz="18" departLane="free" departSpeed="max"/>
    <trip id="2200" depart="28869.23" from="#EdgeID69" to="#EdgeID17" fromTaz="22" toTaz="7" departLane="free" departSpeed="max"/>
    <trip id="2227" depart="28869.23" from="#EdgeID73" to="#EdgeID39" fromTaz="23" toTaz="13" departLane="free" departSpeed="max"/>
    <trip id="298" depart="28872.00" from="#EdgeID39" to="#EdgeID17" fromTaz="13" toTaz="7" departLane="free" departSpeed="max"/>
    <trip id="3137" depart="28872.00" from="#EdgeID18" to="#EdgeID14" fromTaz="7" toTaz="6" departLane="free" departSpeed="max"/>
    <trip id="190" depart="28873.97" from="#EdgeID38" to="#EdgeID71" fromTaz="13" toTaz="23" departLane="free" departSpeed="max"/>
    <trip id="603" depart="28873.97" from="#EdgeID52" to="#EdgeID72" fromTaz="17" toTaz="23" departLane="free" departSpeed="max"/>
    <trip id="1372" depart="28875.00" from="#EdgeID64" to="#EdgeID17" fromTaz="21" toTaz="7" departLane="free" departSpeed="max"/>
    <trip id="388" depart="28875.00" from="#EdgeID53" to="#EdgeID55" fromTaz="17" toTaz="18" departLane="free" departSpeed="max"/>
    <trip id="73" depart="28876.27" from="#EdgeID38" to="#EdgeID67" fromTaz="13" toTaz="22" departLane="free" departSpeed="max"/>
    <trip id="1471" depart="28878.00" from="#EdgeID68" to="#EdgeID52" fromTaz="22" toTaz="17" departLane="free" departSpeed="max"/>
    <trip id="1397" depart="28878.26" from="#EdgeID67" to="#EdgeID39" fromTaz="22" toTaz="13" departLane="free" departSpeed="max"/>
    <trip id="1887" depart="28878.26" from="#EdgeID68" to="#EdgeID71" fromTaz="22" toTaz="23" departLane="free" departSpeed="max"/>
    <trip id="2705" depart="28878.26" from="#EdgeID9" to="#EdgeID18" fromTaz="4" toTaz="7" departLane="free" departSpeed="max"/>
    <trip id="1015" depart="28878.52" from="#EdgeID64" to="#EdgeID67" fromTaz="21" toTaz="22" departLane="free" departSpeed="max"/>
    <trip id="445" depart="28878.75" from="#EdgeID53" to="#EdgeID69" fromTaz="17" toTaz="22" departLane="free" departSpeed="max"/>
    <trip id="262" depart="28881.82" from="#EdgeID39" to="#EdgeID10" fromTaz="13" toTaz="4" departLane="free" departSpeed="max"/>
    <trip id="2683" depart="28881.82" from="#EdgeID8" to="#EdgeID14" fromTaz="4" toTaz="6" departLane="free" departSpeed="max"/>
    <trip id="2840" depart="28881.82" from="#EdgeID15" to="#EdgeID17" fromTaz="6" toTaz="7" departLane="free" departSpeed="max"/>
    <trip id="3087" depart="28881.82" from="#EdgeID17" to="#EdgeID73" fromTaz="7" toTaz="23" departLane="free" departSpeed="max"/>
    <trip id="2892" depart="28882.57" from="#EdgeID18" to="#EdgeID52" fromTaz="7" toTaz="17" departLane="free" departSpeed="max"/>
    <trip id="324" depart="28883.08" from="#EdgeID53" to="#EdgeID39" fromTaz="17" toTaz="13" departLane="free" departSpeed="max"/>
    <trip id="1777" depart="28884.11" from="#EdgeID69" to="#EdgeID64" fromTaz="22" toTaz="21" departLane="free" departSpeed="max"/>
    <trip id="2305" depart="28884.38" from="#EdgeID72" to="#EdgeID53" fromTaz="23" toTaz="17" departLane="free" departSpeed="max"/>
    <trip id="842" depart="28885.71" from="#EdgeID55" to="#EdgeID52" fromTaz="18" toTaz="17" departLane="free" departSpeed="max"/>
    <trip id="2459" depart="28887.10" from="#EdgeID72" to="#EdgeID8" fromTaz="23" toTaz="4" departLane="free" departSpeed="max"/>
    <trip id="1472" depart="28890.00" from="#EdgeID68" to="#EdgeID52" fromTaz="22" toTaz="17" departLane="free" departSpeed="max"/>
    <trip id="940" depart="28890.00" from="#EdgeID65" to="#EdgeID38" fromTaz="21" toTaz="13" departLane="free" departSpeed="max"/>
    <trip id="1016" depart="28890.60" from="#EdgeID64" to="#EdgeID69" fromTaz="21" toTaz="22" departLane="free" departSpeed="max"/>
    <trip id="1888" depart="28892.49" from="#EdgeID69" to="#EdgeID71" fromTaz="22" toTaz="23" departLane="free" departSpeed="max"/>
    <trip id="3026" depart="28894.74" from="#EdgeID17" to="#EdgeID64" fromTaz="7" toTaz="21" departLane="free" departSpeed="max"/>
    <trip id="446" depart="28901.25" from="#EdgeID51" to="#EdgeID70" fromTaz="17" toTaz="22" departLane="free" departSpeed="max"/>
    <trip id="1473" depart="28902.00" from="#EdgeID67" to="#EdgeID52" fromTaz="22" toTaz="17" departLane="free" departSpeed="max"/>
    <trip id="1017" depart="28902.68" from="#EdgeID64" to="#EdgeID69" fromTaz="21" toTaz="22" departLane="free" departSpeed="max"/>
    <trip id="2728" depart="28905.88" from="#EdgeID15" to="#EdgeID38" fromTaz="6" toTaz="13" departLane="free" departSpeed="max"/>
    <trip id="2795" depart="28905.88" from="#EdgeID14" to="#EdgeID70" fromTaz="6" toTaz="22" departLane="free" departSpeed="max"/>
    <trip id="1889" depart="28906.72" from="#EdgeID67" to="#EdgeID72" fromTaz="22" toTaz="23" departLane="free" departSpeed="max"/>
    <trip id="74" depart="28906.78" from="#EdgeID39" to="#EdgeID69" fromTaz="13" toTaz="22" departLane="free" departSpeed="max"/>
    <trip id="724" depart="28909.76" from="#EdgeID51" to="#EdgeID14" fromTaz="17" toTaz="6" departLane="free" departSpeed="max"/>
    <trip id="1347" depart="28912.50" from="#EdgeID65" to="#EdgeID9" fromTaz="21" toTaz="4" departLane="free" departSpeed="max"/>
    <trip id="1474" depart="28914.00" from="#EdgeID69" to="#EdgeID51" fromTaz="22" toTaz="17" departLane="free" departSpeed="max"/>
    <trip id="1018" depart="28914.77" from="#EdgeID64" to="#EdgeID69" fromTaz="21" toTaz="22" departLane="free" departSpeed="max"/>
    <trip id="676" depart="28914.89" from="#EdgeID52" to="#EdgeID10" fromTaz="17" toTaz="4" departLane="free" departSpeed="max"/>
    <trip id="2228" depart="28915.38" from="#EdgeID72" to="#EdgeID38" fromTaz="23" toTaz="13" departLane="free" departSpeed="max"/>
    <trip id="2893" depart="28915.60" from="#EdgeID17" to="#EdgeID53" fromTaz="7" toTaz="17" departLane="free" departSpeed="max"/>
    <trip id="2746" depart="28917.39" from="#EdgeID14" to="#EdgeID52" fromTaz="6" toTaz="17" departLane="free" departSpeed="max"/>
    <trip id="1778" depart="28917.76" from="#EdgeID69" to="#EdgeID66" fromTaz="22" toTaz="21" departLane="free" departSpeed="max"/>
    <trip id="2414" depart="28920.00" from="#EdgeID72" to="#EdgeID68" fromTaz="23" toTaz="22" departLane="free" departSpeed="max"/>
    <trip id="2812" depart="28920.00" from="#EdgeID14" to="#EdgeID72" fromTaz="6" toTaz="23" departLane="free" departSpeed="max"/>
    <trip id="1890" depart="28920.95" from="#EdgeID70" to="#EdgeID72" fromTaz="22" toTaz="23" departLane="free" departSpeed="max"/>
    <trip id="191" depart="28923.29" from="#EdgeID39" to="#EdgeID72" fromTaz="13" toTaz="23" departLane="free" departSpeed="max"/>
    <trip id="604" depart="28923.29" from="#EdgeID52" to="#EdgeID72" fromTaz="17" toTaz="23" departLane="free" departSpeed="max"/>
    <trip id="447" depart="28923.75" from="#EdgeID53" to="#EdgeID69" fromTaz="17" toTaz="22" departLane="free" departSpeed="max"/>
    <trip id="1475" depart="28926.00" from="#EdgeID67" to="#EdgeID52" fromTaz="22" toTaz="17" departLane="free" departSpeed="max"/>
    <trip id="1019" depart="28926.85" from="#EdgeID65" to="#EdgeID67" fromTaz="21" toTaz="22" departLane="free" departSpeed="max"/>
    <trip id="2372" depart="28928.57" from="#EdgeID72" to="#EdgeID64" fromTaz="23" toTaz="21" departLane="free" departSpeed="max"/>
    <trip id="284" depart="28928.57" from="#EdgeID38" to="#EdgeID15" fromTaz="13" toTaz="6" departLane="free" departSpeed="max"/>
    <trip id="3046" depart="28928.57" from="#EdgeID17" to="#EdgeID69" fromTaz="7" toTaz="22" departLane="free" departSpeed="max"/>
    <trip id="1398" depart="28930.43" from="#EdgeID69" to="#EdgeID39" fromTaz="22" toTaz="13" departLane="free" departSpeed="max"/>
    <trip id="961" depart="28931.71" from="#EdgeID64" to="#EdgeID53" fromTaz="21" toTaz="17" departLane="free" departSpeed="max"/>
    <trip id="1308" depart="28935.00" from="#EdgeID64" to="#EdgeID71" fromTaz="21" toTaz="23" departLane="free" departSpeed="max"/>
    <trip id="2644" depart="28935.00" from="#EdgeID10" to="#EdgeID73" fromTaz="4" toTaz="23" departLane="free" departSpeed="max"/>
    <trip id="874" depart="28935.00" from="#EdgeID56" to="#EdgeID70" fromTaz="18" toTaz="22" departLane="free" departSpeed="max"/>
    <trip id="1891" depart="28935.18" from="#EdgeID70" to="#EdgeID71" fromTaz="22" toTaz="23" departLane="free" departSpeed="max"/>
    <trip id="75" depart="28937.29" from="#EdgeID38" to="#EdgeID68" fromTaz="13" toTaz="22" departLane="free" departSpeed="max"/>
    <trip id="1476" depart="28938.00" from="#EdgeID70" to="#EdgeID52" fromTaz="22" toTaz="17" departLane="free" departSpeed="max"/>
    <trip id="2827" depart="28938.46" from="#EdgeID14" to="#EdgeID8" fromTaz="6" toTaz="4" departLane="free" departSpeed="max"/>
    <trip id="325" depart="28938.46" from="#EdgeID52" to="#EdgeID39" fromTaz="17" toTaz="13" departLane="free" departSpeed="max"/>
    <trip id="927" depart="28938.46" from="#EdgeID56" to="#EdgeID17" fromTaz="18" toTaz="7" departLane="free" departSpeed="max"/>
    <trip id="1020" depart="28938.93" from="#EdgeID66" to="#EdgeID69" fromTaz="21" toTaz="22" departLane="free" departSpeed="max"/>
    <trip id="2306" depart="28940.63" from="#EdgeID73" to="#EdgeID51" fromTaz="23" toTaz="17" departLane="free" departSpeed="max"/>
    <trip id="2460" depart="28945.16" from="#EdgeID72" to="#EdgeID9" fromTaz="23" toTaz="4" departLane="free" departSpeed="max"/>
    <trip id="805" depart="28945.95" from="#EdgeID52" to="#EdgeID17" fromTaz="17" toTaz="7" departLane="free" departSpeed="max"/>
    <trip id="448" depart="28946.25" from="#EdgeID52" to="#EdgeID68" fromTaz="17" toTaz="22" departLane="free" departSpeed="max"/>
    <trip id="2894" depart="28948.62" from="#EdgeID17" to="#EdgeID51" fromTaz="7" toTaz="17" departLane="free" departSpeed="max"/>
    <trip id="1892" depart="28949.41" from="#EdgeID68" to="#EdgeID73" fromTaz="22" toTaz="23" departLane="free" departSpeed="max"/>
    <trip id="1477" depart="28950.00" from="#EdgeID68" to="#EdgeID53" fromTaz="22" toTaz="17" departLane="free" departSpeed="max"/>
    <trip id="2564" depart="28950.00" from="#EdgeID10" to="#EdgeID51" fromTaz="4" toTaz="17" departLane="free" departSpeed="max"/>
    <trip id="36" depart="28950.00" from="#EdgeID38" to="#EdgeID64" fromTaz="13" toTaz="21" departLane="free" departSpeed="max"/>
    <trip id="1021" depart="28951.01" from="#EdgeID65" to="#EdgeID67" fromTaz="21" toTaz="22" departLane="free" departSpeed="max"/>
    <trip id="1779" depart="28951.40" from="#EdgeID69" to="#EdgeID64" fromTaz="22" toTaz="21" departLane="free" departSpeed="max"/>
    <trip id="725" depart="28953.66" from="#EdgeID51" to="#EdgeID15" fromTaz="17" toTaz="6" departLane="free" departSpeed="max"/>
    <trip id="2167" depart="28958.82" from="#EdgeID68" to="#EdgeID16" fromTaz="22" toTaz="6" departLane="free" departSpeed="max"/>
    <trip id="2229" depart="28961.54" from="#EdgeID71" to="#EdgeID39" fromTaz="23" toTaz="13" departLane="free" departSpeed="max"/>
    <trip id="1478" depart="28962.00" from="#EdgeID69" to="#EdgeID53" fromTaz="22" toTaz="17" departLane="free" departSpeed="max"/>
    <trip id="1022" depart="28963.09" from="#EdgeID64" to="#EdgeID69" fromTaz="21" toTaz="22" departLane="free" departSpeed="max"/>
    <trip id="1893" depart="28963.64" from="#EdgeID68" to="#EdgeID73" fromTaz="22" toTaz="23" departLane="free" departSpeed="max"/>
    <trip id="76" depart="28967.80" from="#EdgeID38" to="#EdgeID70" fromTaz="13" toTaz="22" departLane="free" departSpeed="max"/>
    <trip id="449" depart="28968.75" from="#EdgeID51" to="#EdgeID70" fromTaz="17" toTaz="22" departLane="free" departSpeed="max"/>
    <trip id="192" depart="28972.60" from="#EdgeID39" to="#EdgeID71" fromTaz="13" toTaz="23" departLane="free" departSpeed="max"/>
    <trip id="605" depart="28972.60" from="#EdgeID53" to="#EdgeID72" fromTaz="17" toTaz="23" departLane="free" departSpeed="max"/>
    <trip id="1479" depart="28974.00" from="#EdgeID68" to="#EdgeID52" fromTaz="22" toTaz="17" departLane="free" departSpeed="max"/>
    <trip id="2136" depart="28974.19" from="#EdgeID69" to="#EdgeID9" fromTaz="22" toTaz="4" departLane="free" departSpeed="max"/>
    <trip id="1023" depart="28975.17" from="#EdgeID64" to="#EdgeID68" fromTaz="21" toTaz="22" departLane="free" departSpeed="max"/>
    <trip id="1894" depart="28977.87" from="#EdgeID67" to="#EdgeID73" fromTaz="22" toTaz="23" departLane="free" departSpeed="max"/>
    <trip id="1" depart="28980.00" from="#EdgeID38" to="#EdgeID52" fromTaz="13" toTaz="17" departLane="free" departSpeed="max"/>
    <trip id="1765" depart="28980.00" from="#EdgeID70" to="#EdgeID56" fromTaz="22" toTaz="18" departLane="free" departSpeed="max"/>
    <trip id="2614" depart="28980.00" from="#EdgeID8" to="#EdgeID67" fromTaz="4" toTaz="22" departLane="free" departSpeed="max"/>
    <trip id="413" depart="28980.00" from="#EdgeID53" to="#EdgeID65" fromTaz="17" toTaz="21" departLane="free" departSpeed="max"/>
    <trip id="863" depart="28980.00" from="#EdgeID55" to="#EdgeID66" fromTaz="18" toTaz="21" departLane="free" departSpeed="max"/>
    <trip id="2895" depart="28981.65" from="#EdgeID18" to="#EdgeID51" fromTaz="7" toTaz="17" departLane="free" departSpeed="max"/>
    <trip id="1399" depart="28982.61" from="#EdgeID70" to="#EdgeID39" fromTaz="22" toTaz="13" departLane="free" departSpeed="max"/>
    <trip id="1780" depart="28985.05" from="#EdgeID67" to="#EdgeID64" fromTaz="22" toTaz="21" departLane="free" departSpeed="max"/>
    <trip id="1480" depart="28986.00" from="#EdgeID70" to="#EdgeID53" fromTaz="22" toTaz="17" departLane="free" departSpeed="max"/>
    <trip id="1024" depart="28987.25" from="#EdgeID64" to="#EdgeID67" fromTaz="21" toTaz="22" departLane="free" departSpeed="max"/>
    <trip id="450" depart="28991.25" from="#EdgeID52" to="#EdgeID69" fromTaz="17" toTaz="22" departLane="free" departSpeed="max"/>
    <trip id="677" depart="28991.49" from="#EdgeID53" to="#EdgeID8" fromTaz="17" toTaz="4" departLane="free" departSpeed="max"/>
    <trip id="1895" depart="28992.09" from="#EdgeID69" to="#EdgeID72" fromTaz="22" toTaz="23" departLane="free" departSpeed="max"/>
    <trip id="2529" depart="28992.86" from="#EdgeID73" to="#EdgeID18" fromTaz="23" toTaz="7" departLane="free" departSpeed="max"/>
    <trip id="2863" depart="28992.86" from="#EdgeID17" to="#EdgeID38" fromTaz="7" toTaz="13" departLane="free" departSpeed="max"/>
    <trip id="3110" depart="28992.86" from="#EdgeID17" to="#EdgeID8" fromTaz="7" toTaz="4" departLane="free" departSpeed="max"/>
    <trip id="326" depart="28993.85" from="#EdgeID51" to="#EdgeID39" fromTaz="17" toTaz="13" departLane="free" departSpeed="max"/>
    <trip id="2747" depart="28995.65" from="#EdgeID14" to="#EdgeID51" fromTaz="6" toTaz="17" departLane="free" departSpeed="max"/>
    <trip id="2307" depart="28996.88" from="#EdgeID72" to="#EdgeID53" fromTaz="23" toTaz="17" departLane="free" departSpeed="max"/>
    <trip id="726" depart="28997.56" from="#EdgeID52" to="#EdgeID14" fromTaz="17" toTaz="6" departLane="free" departSpeed="max"/>
    <trip id="1481" depart="28998.00" from="#EdgeID70" to="#EdgeID53" fromTaz="22" toTaz="17" departLane="free" departSpeed="max"/>
    <trip id="77" depart="28998.31" from="#EdgeID39" to="#EdgeID67" fromTaz="13" toTaz="22" departLane="free" departSpeed="max"/>
    <trip id="1025" depart="28999.33" from="#EdgeID65" to="#EdgeID69" fromTaz="21" toTaz="22" departLane="free" departSpeed="max"/>
    <trip id="1363" depart="29000.00" from="#EdgeID64" to="#EdgeID16" fromTaz="21" toTaz="6" departLane="free" departSpeed="max"/>
    <trip id="2415" depart="29000.00" from="#EdgeID72" to="#EdgeID70" fromTaz="23" toTaz="22" departLane="free" departSpeed="max"/>
    <trip id="3000" depart="29000.00" from="#EdgeID18" to="#EdgeID56" fromTaz="7" toTaz="18" departLane="free" departSpeed="max"/>
    <trip id="2461" depart="29003.23" from="#EdgeID72" to="#EdgeID10" fromTaz="23" toTaz="4" departLane="free" departSpeed="max"/>
    <trip id="1896" depart="29006.32" from="#EdgeID69" to="#EdgeID72" fromTaz="22" toTaz="23" departLane="free" departSpeed="max"/>
    <trip id="2201" depart="29007.69" from="#EdgeID68" to="#EdgeID18" fromTaz="22" toTaz="7" departLane="free" departSpeed="max"/>
    <trip id="2230" depart="29007.69" from="#EdgeID72" to="#EdgeID38" fromTaz="23" toTaz="13" departLane="free" departSpeed="max"/>
    <trip id="1482" depart="29010.00" from="#EdgeID68" to="#EdgeID52" fromTaz="22" toTaz="17" departLane="free" departSpeed="max"/>
    <trip id="1026" depart="29011.41" from="#EdgeID65" to="#EdgeID67" fromTaz="21" toTaz="22" departLane="free" departSpeed="max"/>
    <trip id="451" depart="29013.75" from="#EdgeID52" to="#EdgeID67" fromTaz="17" toTaz="22" departLane="free" departSpeed="max"/>
    <trip id="2373" depart="29014.29" from="#EdgeID71" to="#EdgeID64" fromTaz="23" toTaz="21" departLane="free" departSpeed="max"/>
    <trip id="3047" depart="29014.29" from="#EdgeID18" to="#EdgeID69" fromTaz="7" toTaz="22" departLane="free" departSpeed="max"/>
    <trip id="2896" depart="29014.68" from="#EdgeID18" to="#EdgeID52" fromTaz="7" toTaz="17" departLane="free" departSpeed="max"/>
    <trip id="299" depart="29016.00" from="#EdgeID39" to="#EdgeID17" fromTaz="13" toTaz="7" departLane="free" departSpeed="max"/>
    <trip id="3138" depart="29016.00" from="#EdgeID18" to="#EdgeID16" fromTaz="7" toTaz="6" departLane="free" departSpeed="max"/>
    <trip id="1781" depart="29018.69" from="#EdgeID69" to="#EdgeID64" fromTaz="22" toTaz="21" departLane="free" departSpeed="max"/>
    <trip id="962" depart="29019.51" from="#EdgeID66" to="#EdgeID51" fromTaz="21" toTaz="17" departLane="free" departSpeed="max"/>
    <trip id="1897" depart="29020.55" from="#EdgeID69" to="#EdgeID73" fromTaz="22" toTaz="23" departLane="free" departSpeed="max"/>
    <trip id="193" depart="29021.92" from="#EdgeID39" to="#EdgeID71" fromTaz="13" toTaz="23" departLane="free" departSpeed="max"/>
    <trip id="606" depart="29021.92" from="#EdgeID51" to="#EdgeID72" fromTaz="17" toTaz="23" departLane="free" departSpeed="max"/>
    <trip id="1483" depart="29022.00" from="#EdgeID69" to="#EdgeID52" fromTaz="22" toTaz="17" departLane="free" departSpeed="max"/>
    <trip id="1027" depart="29023.49" from="#EdgeID64" to="#EdgeID70" fromTaz="21" toTaz="22" departLane="free" departSpeed="max"/>
    <trip id="1001" depart="29025.00" from="#EdgeID65" to="#EdgeID56" fromTaz="21" toTaz="18" departLane="free" departSpeed="max"/>
    <trip id="1309" depart="29025.00" from="#EdgeID64" to="#EdgeID73" fromTaz="21" toTaz="23" departLane="free" departSpeed="max"/>
    <trip id="1373" depart="29025.00" from="#EdgeID64" to="#EdgeID17" fromTaz="21" toTaz="7" departLane="free" departSpeed="max"/>
    <trip id="2520" depart="29025.00" from="#EdgeID73" to="#EdgeID16" fromTaz="23" toTaz="6" departLane="free" departSpeed="max"/>
    <trip id="2605" depart="29025.00" from="#EdgeID8" to="#EdgeID65" fromTaz="4" toTaz="21" departLane="free" departSpeed="max"/>
    <trip id="2645" depart="29025.00" from="#EdgeID10" to="#EdgeID72" fromTaz="4" toTaz="23" departLane="free" departSpeed="max"/>
    <trip id="389" depart="29025.00" from="#EdgeID52" to="#EdgeID54" fromTaz="17" toTaz="18" departLane="free" departSpeed="max"/>
    <trip id="875" depart="29025.00" from="#EdgeID56" to="#EdgeID68" fromTaz="18" toTaz="22" departLane="free" departSpeed="max"/>
    <trip id="913" depart="29025.00" from="#EdgeID54" to="#EdgeID73" fromTaz="18" toTaz="23" departLane="free" departSpeed="max"/>
    <trip id="78" depart="29028.81" from="#EdgeID38" to="#EdgeID69" fromTaz="13" toTaz="22" departLane="free" departSpeed="max"/>
    <trip id="1484" depart="29034.00" from="#EdgeID70" to="#EdgeID51" fromTaz="22" toTaz="17" departLane="free" departSpeed="max"/>
    <trip id="1400" depart="29034.78" from="#EdgeID68" to="#EdgeID39" fromTaz="22" toTaz="13" departLane="free" departSpeed="max"/>
    <trip id="1898" depart="29034.78" from="#EdgeID67" to="#EdgeID72" fromTaz="22" toTaz="23" departLane="free" departSpeed="max"/>
    <trip id="2706" depart="29034.78" from="#EdgeID8" to="#EdgeID18" fromTaz="4" toTaz="7" departLane="free" departSpeed="max"/>
    <trip id="1028" depart="29035.57" from="#EdgeID66" to="#EdgeID67" fromTaz="21" toTaz="22" departLane="free" departSpeed="max"/>
    <trip id="452" depart="29036.25" from="#EdgeID51" to="#EdgeID70" fromTaz="17" toTaz="22" departLane="free" departSpeed="max"/>
    <trip id="727" depart="29041.46" from="#EdgeID52" to="#EdgeID14" fromTaz="17" toTaz="6" departLane="free" departSpeed="max"/>
    <trip id="806" depart="29043.24" from="#EdgeID53" to="#EdgeID18" fromTaz="17" toTaz="7" departLane="free" departSpeed="max"/>
    <trip id="263" depart="29045.45" from="#EdgeID38" to="#EdgeID10" fromTaz="13" toTaz="4" departLane="free" departSpeed="max"/>
    <trip id="2684" depart="29045.45" from="#EdgeID10" to="#EdgeID16" fromTaz="4" toTaz="6" departLane="free" departSpeed="max"/>
    <trip id="2841" depart="29045.45" from="#EdgeID16" to="#EdgeID17" fromTaz="6" toTaz="7" departLane="free" departSpeed="max"/>
    <trip id="3088" depart="29045.45" from="#EdgeID18" to="#EdgeID71" fromTaz="7" toTaz="23" departLane="free" departSpeed="max"/>
    <trip id="1485" depart="29046.00" from="#EdgeID69" to="#EdgeID53" fromTaz="22" toTaz="17" departLane="free" departSpeed="max"/>
    <trip id="1029" depart="29047.65" from="#EdgeID66" to="#EdgeID67" fromTaz="21" toTaz="22" departLane="free" departSpeed="max"/>
    <trip id="2897" depart="29047.71" from="#EdgeID17" to="#EdgeID51" fromTaz="7" toTaz="17" departLane="free" departSpeed="max"/>