<?xml version="1.0" encoding="UTF-8"?>

<!-- generated on 2025-09-11 01:09:02 by Eclipse SUMO netedit Version 1.24.0
-->

<additional xmlns:xsi="http://www.w3.org/2001/XMLSchema-instance" xsi:noNamespaceSchemaLocation="http://sumo.dlr.de/xsd/additional_file.xsd">
    <!-- TAZs -->
    <taz id="taz_0" shape="1900.00,5300.00 1900.00,5300.00 1900.00,5300.00 2600.00,5300.00 2600.00,4600.00 1900.00,4600.00 1900.00,5300.00" fill="1" color="255,90,0">
        <tazSource id="-367992748" weight="1.00"/>
        <tazSink id="-367992748" weight="1.00"/>
        <tazSource id="-412794344#1" weight="1.00"/>
        <tazSink id="-412794344#1" weight="1.00"/>
        <tazSource id="-5762199#2" weight="1.00"/>
        <tazSink id="-5762199#2" weight="1.00"/>
        <tazSource id="114940011#0" weight="1.00"/>
        <tazSink id="114940011#0" weight="1.00"/>
        <tazSource id="1306125519" weight="1.00"/>
        <tazSink id="1306125519" weight="1.00"/>
        <tazSource id="130655746" weight="1.00"/>
        <tazSink id="130655746" weight="1.00"/>
        <tazSource id="1349777341#0" weight="1.00"/>
        <tazSink id="1349777341#0" weight="1.00"/>
        <tazSource id="1412536768" weight="1.00"/>
        <tazSink id="1412536768" weight="1.00"/>
        <tazSource id="14182654" weight="1.00"/>
        <tazSink id="14182654" weight="1.00"/>
        <tazSource id="14184591" weight="1.00"/>
        <tazSink id="14184591" weight="1.00"/>
        <tazSource id="14193958" weight="1.00"/>
        <tazSink id="14193958" weight="1.00"/>
        <tazSource id="14194137" weight="1.00"/>
        <tazSink id="14194137" weight="1.00"/>
        <tazSource id="211085460" weight="1.00"/>
        <tazSink id="211085460" weight="1.00"/>
        <tazSource id="222577618" weight="1.00"/>
        <tazSink id="222577618" weight="1.00"/>
        <tazSource id="222714552" weight="1.00"/>
        <tazSink id="222714552" weight="1.00"/>
        <tazSource id="222714917#0" weight="1.00"/>
        <tazSink id="222714917#0" weight="1.00"/>
        <tazSource id="222714918#0" weight="1.00"/>
        <tazSink id="222714918#0" weight="1.00"/>
        <tazSource id="222714919#0" weight="1.00"/>
        <tazSink id="222714919#0" weight="1.00"/>
        <tazSource id="28758500" weight="1.00"/>
        <tazSink id="28758500" weight="1.00"/>
        <tazSource id="367728205" weight="1.00"/>
        <tazSink id="367728205" weight="1.00"/>
        <tazSource id="367992748" weight="1.00"/>
        <tazSink id="367992748" weight="1.00"/>
        <tazSource id="367992749#0" weight="1.00"/>
        <tazSink id="367992749#0" weight="1.00"/>
        <tazSource id="368462896#0" weight="1.00"/>
        <tazSink id="368462896#0" weight="1.00"/>
        <tazSource id="368462899#0" weight="1.00"/>
        <tazSink id="368462899#0" weight="1.00"/>
        <tazSource id="368462900#0" weight="1.00"/>
        <tazSink id="368462900#0" weight="1.00"/>
        <tazSource id="412794344#0" weight="1.00"/>
        <tazSink id="412794344#0" weight="1.00"/>
        <tazSource id="428437262" weight="1.00"/>
        <tazSink id="428437262" weight="1.00"/>
        <tazSource id="428437263" weight="1.00"/>
        <tazSink id="428437263" weight="1.00"/>
        <tazSource id="435670419" weight="1.00"/>
        <tazSink id="435670419" weight="1.00"/>
        <tazSource id="440595795" weight="1.00"/>
        <tazSink id="440595795" weight="1.00"/>
        <tazSource id="440595797" weight="1.00"/>
        <tazSink id="440595797" weight="1.00"/>
        <tazSource id="459887239" weight="1.00"/>
        <tazSink id="459887239" weight="1.00"/>
        <tazSource id="5762199#0" weight="1.00"/>
        <tazSink id="5762199#0" weight="1.00"/>
        <tazSource id="72102228" weight="1.00"/>
        <tazSink id="72102228" weight="1.00"/>
        <tazSource id="76778527#0" weight="1.00"/>
        <tazSink id="76778527#0" weight="1.00"/>
        <tazSource id="78500972" weight="1.00"/>
        <tazSink id="78500972" weight="1.00"/>
        <tazSource id="8046215" weight="1.00"/>
        <tazSink id="8046215" weight="1.00"/>
        <tazSource id="8082666" weight="1.00"/>
        <tazSink id="8082666" weight="1.00"/>
    </taz>
    <taz id="taz_1" shape="1200.00,5700.00 1200.00,5000.00 1900.00,5000.00 1900.00,5700.00 1200.00,5700.00" fill="1" color="255,191,0">
        <tazSource id="-114072547#0" weight="1.00"/>
        <tazSink id="-114072547#0" weight="1.00"/>
        <tazSource id="-1184574641" weight="1.00"/>
        <tazSink id="-1184574641" weight="1.00"/>
        <tazSource id="-128882184" weight="1.00"/>
        <tazSink id="-128882184" weight="1.00"/>
        <tazSource id="-222569243" weight="1.00"/>
        <tazSink id="-222569243" weight="1.00"/>
        <tazSource id="-24157247" weight="1.00"/>
        <tazSink id="-24157247" weight="1.00"/>
        <tazSource id="-24747150" weight="1.00"/>
        <tazSink id="-24747150" weight="1.00"/>
        <tazSource id="-407740157" weight="1.00"/>
        <tazSink id="-407740157" weight="1.00"/>
        <tazSource id="1099828576" weight="1.00"/>
        <tazSink id="1099828576" weight="1.00"/>
        <tazSource id="1099828579" weight="1.00"/>
        <tazSink id="1099828579" weight="1.00"/>
        <tazSource id="1099829903" weight="1.00"/>
        <tazSink id="1099829903" weight="1.00"/>
        <tazSource id="1194935199" weight="1.00"/>
        <tazSink id="1194935199" weight="1.00"/>
        <tazSource id="1194935201" weight="1.00"/>
        <tazSink id="1194935201" weight="1.00"/>
        <tazSource id="1197092086" weight="1.00"/>
        <tazSink id="1197092086" weight="1.00"/>
        <tazSource id="1197092088" weight="1.00"/>
        <tazSink id="1197092088" weight="1.00"/>
        <tazSource id="1197506902" weight="1.00"/>
        <tazSink id="1197506902" weight="1.00"/>
        <tazSource id="14328265" weight="1.00"/>
        <tazSink id="14328265" weight="1.00"/>
        <tazSource id="170742746" weight="1.00"/>
        <tazSink id="170742746" weight="1.00"/>
        <tazSource id="222569243" weight="1.00"/>
        <tazSink id="222569243" weight="1.00"/>
        <tazSource id="222569244" weight="1.00"/>
        <tazSink id="222569244" weight="1.00"/>
        <tazSource id="222577618" weight="1.00"/>
        <tazSink id="222577618" weight="1.00"/>
        <tazSource id="222714551" weight="1.00"/>
        <tazSink id="222714551" weight="1.00"/>
        <tazSource id="222714552" weight="1.00"/>
        <tazSink id="222714552" weight="1.00"/>
        <tazSource id="251155872" weight="1.00"/>
        <tazSink id="251155872" weight="1.00"/>
        <tazSource id="251155873" weight="1.00"/>
        <tazSink id="251155873" weight="1.00"/>
        <tazSource id="25689972" weight="1.00"/>
        <tazSink id="25689972" weight="1.00"/>
        <tazSource id="25689979" weight="1.00"/>
        <tazSink id="25689979" weight="1.00"/>
        <tazSource id="367728194" weight="1.00"/>
        <tazSink id="367728194" weight="1.00"/>
        <tazSource id="367728196" weight="1.00"/>
        <tazSink id="367728196" weight="1.00"/>
        <tazSource id="367728199" weight="1.00"/>
        <tazSink id="367728199" weight="1.00"/>
        <tazSource id="367728200" weight="1.00"/>
        <tazSink id="367728200" weight="1.00"/>
        <tazSource id="367728201" weight="1.00"/>
        <tazSink id="367728201" weight="1.00"/>
        <tazSource id="367728203" weight="1.00"/>
        <tazSink id="367728203" weight="1.00"/>
        <tazSource id="367728205" weight="1.00"/>
        <tazSink id="367728205" weight="1.00"/>
        <tazSource id="42676072" weight="1.00"/>
        <tazSink id="42676072" weight="1.00"/>
        <tazSource id="438407247" weight="1.00"/>
        <tazSink id="438407247" weight="1.00"/>
        <tazSource id="4444700" weight="1.00"/>
        <tazSink id="4444700" weight="1.00"/>
        <tazSource id="514329093" weight="1.00"/>
        <tazSink id="514329093" weight="1.00"/>
        <tazSource id="514329094" weight="1.00"/>
        <tazSink id="514329094" weight="1.00"/>
        <tazSource id="514329095" weight="1.00"/>
        <tazSink id="514329095" weight="1.00"/>
        <tazSource id="514329096" weight="1.00"/>
        <tazSink id="514329096" weight="1.00"/>
        <tazSource id="514329097" weight="1.00"/>
        <tazSink id="514329097" weight="1.00"/>
        <tazSource id="514329098" weight="1.00"/>
        <tazSink id="514329098" weight="1.00"/>
        <tazSource id="514329099" weight="1.00"/>
        <tazSink id="514329099" weight="1.00"/>
        <tazSource id="777982063" weight="1.00"/>
        <tazSink id="777982063" weight="1.00"/>
        <tazSource id="777987662" weight="1.00"/>
        <tazSink id="777987662" weight="1.00"/>
        <tazSource id="777987663" weight="1.00"/>
        <tazSink id="777987663" weight="1.00"/>
        <tazSource id="777987664" weight="1.00"/>
        <tazSink id="777987664" weight="1.00"/>
        <tazSource id="777987667" weight="1.00"/>
        <tazSink id="777987667" weight="1.00"/>
        <tazSource id="8040375" weight="1.00"/>
        <tazSink id="8040375" weight="1.00"/>
        <tazSource id="8082647" weight="1.00"/>
        <tazSink id="8082647" weight="1.00"/>
        <tazSource id="8082650" weight="1.00"/>
        <tazSink id="8082650" weight="1.00"/>
        <tazSource id="827086917" weight="1.00"/>
        <tazSink id="827086917" weight="1.00"/>
    </taz>
    <taz id="taz_10" shape="1800.00,2100.00 1800.00,1400.00 2500.00,1400.00 2500.00,2100.00 1800.00,2100.00" fill="1" color="0,199,255">
        <tazSource id="-1011871494#2" weight="1.00"/>
        <tazSink id="-1011871494#2" weight="1.00"/>
        <tazSource id="-23952534" weight="1.00"/>
        <tazSink id="-23952534" weight="1.00"/>
        <tazSource id="-28407873" weight="1.00"/>
        <tazSink id="-28407873" weight="1.00"/>
        <tazSource id="-420260799" weight="1.00"/>
        <tazSink id="-420260799" weight="1.00"/>
        <tazSource id="-420260805" weight="1.00"/>
        <tazSink id="-420260805" weight="1.00"/>
        <tazSource id="-4443719" weight="1.00"/>
        <tazSink id="-4443719" weight="1.00"/>
        <tazSource id="-548185940" weight="1.00"/>
        <tazSink id="-548185940" weight="1.00"/>
        <tazSource id="-548185941" weight="1.00"/>
        <tazSink id="-548185941" weight="1.00"/>
        <tazSource id="-818600894" weight="1.00"/>
        <tazSink id="-818600894" weight="1.00"/>
        <tazSource id="-97833581#2" weight="1.00"/>
        <tazSink id="-97833581#2" weight="1.00"/>
        <tazSource id="1012228636#0" weight="1.00"/>
        <tazSink id="1012228636#0" weight="1.00"/>
        <tazSource id="1012228636#2" weight="1.00"/>
        <tazSink id="1012228636#2" weight="1.00"/>
        <tazSource id="1087025662" weight="1.00"/>
        <tazSink id="1087025662" weight="1.00"/>
        <tazSource id="1087025663" weight="1.00"/>
        <tazSink id="1087025663" weight="1.00"/>
        <tazSource id="1087199950" weight="1.00"/>
        <tazSink id="1087199950" weight="1.00"/>
        <tazSource id="164026377" weight="1.00"/>
        <tazSink id="164026377" weight="1.00"/>
        <tazSource id="196474268" weight="1.00"/>
        <tazSink id="196474268" weight="1.00"/>
        <tazSource id="23952534" weight="1.00"/>
        <tazSink id="23952534" weight="1.00"/>
        <tazSource id="261601152#0" weight="1.00"/>
        <tazSink id="261601152#0" weight="1.00"/>
        <tazSource id="411760471" weight="1.00"/>
        <tazSink id="411760471" weight="1.00"/>
        <tazSource id="413441429" weight="1.00"/>
        <tazSink id="413441429" weight="1.00"/>
        <tazSource id="420260795#0" weight="1.00"/>
        <tazSink id="420260795#0" weight="1.00"/>
        <tazSource id="420260799" weight="1.00"/>
        <tazSink id="420260799" weight="1.00"/>
        <tazSource id="420260801" weight="1.00"/>
        <tazSink id="420260801" weight="1.00"/>
        <tazSource id="420260802" weight="1.00"/>
        <tazSink id="420260802" weight="1.00"/>
        <tazSource id="420260806#0" weight="1.00"/>
        <tazSink id="420260806#0" weight="1.00"/>
        <tazSource id="4443719" weight="1.00"/>
        <tazSink id="4443719" weight="1.00"/>
        <tazSource id="5116171#0" weight="1.00"/>
        <tazSink id="5116171#0" weight="1.00"/>
        <tazSource id="5116171#1" weight="1.00"/>
        <tazSink id="5116171#1" weight="1.00"/>
        <tazSource id="976993243#0" weight="1.00"/>
        <tazSink id="976993243#0" weight="1.00"/>
        <tazSource id="97833581#0" weight="1.00"/>
        <tazSink id="97833581#0" weight="1.00"/>
    </taz>
    <taz id="taz_11" shape="1400.00,4500.00 1400.00,3800.00 2100.00,3800.00 2100.00,4500.00 1400.00,4500.00" fill="1" color="0,135,255">
        <tazSource id="-128882184" weight="1.00"/>
        <tazSink id="-128882184" weight="1.00"/>
        <tazSource id="-1303219784" weight="1.00"/>
        <tazSink id="-1303219784" weight="1.00"/>
        <tazSource id="-75221790" weight="1.00"/>
        <tazSink id="-75221790" weight="1.00"/>
        <tazSource id="-75221791" weight="1.00"/>
        <tazSink id="-75221791" weight="1.00"/>
        <tazSource id="106240334#0" weight="1.00"/>
        <tazSink id="106240334#0" weight="1.00"/>
        <tazSource id="1194742739" weight="1.00"/>
        <tazSink id="1194742739" weight="1.00"/>
        <tazSource id="1375588339" weight="1.00"/>
        <tazSink id="1375588339" weight="1.00"/>
        <tazSource id="147260600" weight="1.00"/>
        <tazSink id="147260600" weight="1.00"/>
        <tazSource id="27865722" weight="1.00"/>
        <tazSink id="27865722" weight="1.00"/>
        <tazSource id="293334391#0" weight="1.00"/>
        <tazSink id="293334391#0" weight="1.00"/>
        <tazSource id="367728199" weight="1.00"/>
        <tazSink id="367728199" weight="1.00"/>
        <tazSource id="5168924" weight="1.00"/>
        <tazSink id="5168924" weight="1.00"/>
        <tazSource id="939477015" weight="1.00"/>
        <tazSink id="939477015" weight="1.00"/>
    </taz>
    <taz id="taz_12" shape="5100.00,3100.00 5800.00,3100.00 5800.00,2400.00 5100.00,2400.00 5100.00,3100.00" fill="1" color="0,39,255">
        <tazSource id="-1064359869" weight="1.00"/>
        <tazSink id="-1064359869" weight="1.00"/>
        <tazSource id="-1190554043" weight="1.00"/>
        <tazSink id="-1190554043" weight="1.00"/>
        <tazSource id="-120424453#1" weight="1.00"/>
        <tazSink id="-120424453#1" weight="1.00"/>
        <tazSource id="-120424462#1" weight="1.00"/>
        <tazSink id="-120424462#1" weight="1.00"/>
        <tazSource id="-14888447" weight="1.00"/>
        <tazSink id="-14888447" weight="1.00"/>
        <tazSource id="-14888449#2" weight="1.00"/>
        <tazSink id="-14888449#2" weight="1.00"/>
        <tazSource id="-32721738#1" weight="1.00"/>
        <tazSink id="-32721738#1" weight="1.00"/>
        <tazSource id="-32721739" weight="1.00"/>
        <tazSink id="-32721739" weight="1.00"/>
        <tazSource id="-344242780#2" weight="1.00"/>
        <tazSink id="-344242780#2" weight="1.00"/>
        <tazSource id="-369715039" weight="1.00"/>
        <tazSink id="-369715039" weight="1.00"/>
        <tazSource id="-372613192#2" weight="1.00"/>
        <tazSink id="-372613192#2" weight="1.00"/>
        <tazSource id="-407322830" weight="1.00"/>
        <tazSink id="-407322830" weight="1.00"/>
        <tazSource id="-413017424" weight="1.00"/>
        <tazSink id="-413017424" weight="1.00"/>
        <tazSource id="-413017425#2" weight="1.00"/>
        <tazSink id="-413017425#2" weight="1.00"/>
        <tazSource id="-413017426" weight="1.00"/>
        <tazSink id="-413017426" weight="1.00"/>
        <tazSource id="-422141867#2" weight="1.00"/>
        <tazSink id="-422141867#2" weight="1.00"/>
        <tazSource id="-507049304#1" weight="1.00"/>
        <tazSink id="-507049304#1" weight="1.00"/>
        <tazSource id="-5923662#2" weight="1.00"/>
        <tazSink id="-5923662#2" weight="1.00"/>
        <tazSource id="120424453#0" weight="1.00"/>
        <tazSink id="120424453#0" weight="1.00"/>
        <tazSource id="120424462#0" weight="1.00"/>
        <tazSink id="120424462#0" weight="1.00"/>
        <tazSource id="13865962#0" weight="1.00"/>
        <tazSink id="13865962#0" weight="1.00"/>
        <tazSource id="14336231#0" weight="1.00"/>
        <tazSink id="14336231#0" weight="1.00"/>
        <tazSource id="14888449#0" weight="1.00"/>
        <tazSink id="14888449#0" weight="1.00"/>
        <tazSource id="24236652#0" weight="1.00"/>
        <tazSink id="24236652#0" weight="1.00"/>
        <tazSource id="29073591#0" weight="1.00"/>
        <tazSink id="29073591#0" weight="1.00"/>
        <tazSource id="30711133#0" weight="1.00"/>
        <tazSink id="30711133#0" weight="1.00"/>
        <tazSource id="30711134#0" weight="1.00"/>
        <tazSink id="30711134#0" weight="1.00"/>
        <tazSource id="32721738#0" weight="1.00"/>
        <tazSink id="32721738#0" weight="1.00"/>
        <tazSource id="344242780#0" weight="1.00"/>
        <tazSink id="344242780#0" weight="1.00"/>
        <tazSource id="360265408#0" weight="1.00"/>
        <tazSink id="360265408#0" weight="1.00"/>
        <tazSource id="372613192#0" weight="1.00"/>
        <tazSink id="372613192#0" weight="1.00"/>
        <tazSource id="404789179" weight="1.00"/>
        <tazSink id="404789179" weight="1.00"/>
        <tazSource id="411460020" weight="1.00"/>
        <tazSink id="411460020" weight="1.00"/>
        <tazSource id="413017424" weight="1.00"/>
        <tazSink id="413017424" weight="1.00"/>
        <tazSource id="413017425#0" weight="1.00"/>
        <tazSink id="413017425#0" weight="1.00"/>
        <tazSource id="413017426" weight="1.00"/>
        <tazSink id="413017426" weight="1.00"/>
        <tazSource id="422140799#0" weight="1.00"/>
        <tazSink id="422140799#0" weight="1.00"/>
        <tazSource id="422141867#0" weight="1.00"/>
        <tazSink id="422141867#0" weight="1.00"/>
        <tazSource id="475035147#0" weight="1.00"/>
        <tazSink id="475035147#0" weight="1.00"/>
        <tazSource id="5074625" weight="1.00"/>
        <tazSink id="5074625" weight="1.00"/>
        <tazSource id="5923662#0" weight="1.00"/>
        <tazSink id="5923662#0" weight="1.00"/>
        <tazSource id="8590785#0" weight="1.00"/>
        <tazSink id="8590785#0" weight="1.00"/>
        <tazSource id="919299299" weight="1.00"/>
        <tazSink id="919299299" weight="1.00"/>
    </taz>
    <taz id="taz_13" shape="6000.00,5500.00 6000.00,4800.00 6700.00,4800.00 6700.00,5500.00 6000.00,5500.00" fill="1" color="89,0,255">
        <tazSource id="-1086419462#1" weight="1.00"/>
        <tazSink id="-1086419462#1" weight="1.00"/>
        <tazSource id="-1193507489" weight="1.00"/>
        <tazSink id="-1193507489" weight="1.00"/>
        <tazSource id="-15258363" weight="1.00"/>
        <tazSink id="-15258363" weight="1.00"/>
        <tazSource id="-17103658" weight="1.00"/>
        <tazSink id="-17103658" weight="1.00"/>
        <tazSource id="-206579949#2" weight="1.00"/>
        <tazSink id="-206579949#2" weight="1.00"/>
        <tazSource id="-36003376" weight="1.00"/>
        <tazSink id="-36003376" weight="1.00"/>
        <tazSource id="-36003377" weight="1.00"/>
        <tazSink id="-36003377" weight="1.00"/>
        <tazSource id="-39168906" weight="1.00"/>
        <tazSink id="-39168906" weight="1.00"/>
        <tazSource id="-426415019#2" weight="1.00"/>
        <tazSink id="-426415019#2" weight="1.00"/>
        <tazSource id="-4964415" weight="1.00"/>
        <tazSink id="-4964415" weight="1.00"/>
        <tazSource id="-671374979" weight="1.00"/>
        <tazSink id="-671374979" weight="1.00"/>
        <tazSource id="1085197246" weight="1.00"/>
        <tazSink id="1085197246" weight="1.00"/>
        <tazSource id="17103658" weight="1.00"/>
        <tazSink id="17103658" weight="1.00"/>
        <tazSource id="206579949#0" weight="1.00"/>
        <tazSink id="206579949#0" weight="1.00"/>
        <tazSource id="323020658" weight="1.00"/>
        <tazSink id="323020658" weight="1.00"/>
        <tazSource id="36003376" weight="1.00"/>
        <tazSink id="36003376" weight="1.00"/>
        <tazSource id="36003377" weight="1.00"/>
        <tazSink id="36003377" weight="1.00"/>
        <tazSource id="426415019#0" weight="1.00"/>
        <tazSink id="426415019#0" weight="1.00"/>
        <tazSource id="426415020" weight="1.00"/>
        <tazSink id="426415020" weight="1.00"/>
        <tazSource id="4964415" weight="1.00"/>
        <tazSink id="4964415" weight="1.00"/>
        <tazSource id="59202374" weight="1.00"/>
        <tazSink id="59202374" weight="1.00"/>
        <tazSource id="671374979" weight="1.00"/>
        <tazSink id="671374979" weight="1.00"/>
    </taz>
    <taz id="taz_14" shape="6200.00,3000.00 6200.00,2300.00 6900.00,2300.00 6900.00,3000.00 6200.00,3000.00" fill="1" color="89,0,255">
        <tazSource id="-1189741313" weight="1.00"/>
        <tazSink id="-1189741313" weight="1.00"/>
        <tazSource id="-258080580" weight="1.00"/>
        <tazSink id="-258080580" weight="1.00"/>
        <tazSource id="-411474410#2" weight="1.00"/>
        <tazSink id="-411474410#2" weight="1.00"/>
        <tazSource id="-413440525" weight="1.00"/>
        <tazSink id="-413440525" weight="1.00"/>
        <tazSource id="-564298996#2" weight="1.00"/>
        <tazSink id="-564298996#2" weight="1.00"/>
        <tazSource id="-8081883" weight="1.00"/>
        <tazSink id="-8081883" weight="1.00"/>
        <tazSource id="1189823134#0" weight="1.00"/>
        <tazSink id="1189823134#0" weight="1.00"/>
        <tazSource id="17103605#0" weight="1.00"/>
        <tazSink id="17103605#0" weight="1.00"/>
        <tazSource id="25688336" weight="1.00"/>
        <tazSink id="25688336" weight="1.00"/>
        <tazSource id="258080580" weight="1.00"/>
        <tazSink id="258080580" weight="1.00"/>
        <tazSource id="261606204" weight="1.00"/>
        <tazSink id="261606204" weight="1.00"/>
        <tazSource id="261606209#0" weight="1.00"/>
        <tazSink id="261606209#0" weight="1.00"/>
        <tazSource id="261606220" weight="1.00"/>
        <tazSink id="261606220" weight="1.00"/>
        <tazSource id="261606228#0" weight="1.00"/>
        <tazSink id="261606228#0" weight="1.00"/>
        <tazSource id="261606231" weight="1.00"/>
        <tazSink id="261606231" weight="1.00"/>
        <tazSource id="404386316#0" weight="1.00"/>
        <tazSink id="404386316#0" weight="1.00"/>
        <tazSource id="411274567" weight="1.00"/>
        <tazSink id="411274567" weight="1.00"/>
        <tazSource id="411274568#0" weight="1.00"/>
        <tazSink id="411274568#0" weight="1.00"/>
        <tazSource id="411474410#0" weight="1.00"/>
        <tazSink id="411474410#0" weight="1.00"/>
        <tazSource id="413440525" weight="1.00"/>
        <tazSink id="413440525" weight="1.00"/>
        <tazSource id="564298996#0" weight="1.00"/>
        <tazSink id="564298996#0" weight="1.00"/>
        <tazSource id="8081882" weight="1.00"/>
        <tazSink id="8081882" weight="1.00"/>
        <tazSource id="8081884" weight="1.00"/>
        <tazSink id="8081884" weight="1.00"/>
        <tazSource id="8081885#0" weight="1.00"/>
        <tazSink id="8081885#0" weight="1.00"/>
        <tazSource id="8081886" weight="1.00"/>
        <tazSink id="8081886" weight="1.00"/>
        <tazSource id="8081887" weight="1.00"/>
        <tazSink id="8081887" weight="1.00"/>
    </taz>
    <taz id="taz_15" shape="4200.00,3500.00 3500.00,3500.00 3500.00,4200.00 4200.00,4200.00 4200.00,3500.00" fill="1" color="255,244,0">
        <tazSource id="-1220113515" weight="1.00"/>
        <tazSink id="-1220113515" weight="1.00"/>
        <tazSource id="-13871627#1" weight="1.00"/>
        <tazSink id="-13871627#1" weight="1.00"/>
        <tazSource id="-24819641#3" weight="1.00"/>
        <tazSink id="-24819641#3" weight="1.00"/>
        <tazSource id="-25607735#2" weight="1.00"/>
        <tazSink id="-25607735#2" weight="1.00"/>
        <tazSource id="-259921927#3" weight="1.00"/>
        <tazSink id="-259921927#3" weight="1.00"/>
        <tazSource id="-2896894#1" weight="1.00"/>
        <tazSink id="-2896894#1" weight="1.00"/>
        <tazSource id="-318312583#1" weight="1.00"/>
        <tazSink id="-318312583#1" weight="1.00"/>
        <tazSource id="-378655055#1" weight="1.00"/>
        <tazSink id="-378655055#1" weight="1.00"/>
        <tazSource id="-378655060" weight="1.00"/>
        <tazSink id="-378655060" weight="1.00"/>
        <tazSource id="-414512198#1" weight="1.00"/>
        <tazSink id="-414512198#1" weight="1.00"/>
        <tazSource id="-414512201" weight="1.00"/>
        <tazSink id="-414512201" weight="1.00"/>
        <tazSource id="-436581184#1" weight="1.00"/>
        <tazSink id="-436581184#1" weight="1.00"/>
        <tazSource id="-4553661#2" weight="1.00"/>
        <tazSink id="-4553661#2" weight="1.00"/>
        <tazSource id="-478472521" weight="1.00"/>
        <tazSink id="-478472521" weight="1.00"/>
        <tazSource id="-478516443" weight="1.00"/>
        <tazSink id="-478516443" weight="1.00"/>
        <tazSource id="-478516445" weight="1.00"/>
        <tazSink id="-478516445" weight="1.00"/>
        <tazSource id="-481799129" weight="1.00"/>
        <tazSink id="-481799129" weight="1.00"/>
        <tazSource id="-488338802" weight="1.00"/>
        <tazSink id="-488338802" weight="1.00"/>
        <tazSource id="-79078038#2" weight="1.00"/>
        <tazSink id="-79078038#2" weight="1.00"/>
        <tazSource id="-8111293#3" weight="1.00"/>
        <tazSink id="-8111293#3" weight="1.00"/>
        <tazSource id="13866707#0" weight="1.00"/>
        <tazSink id="13866707#0" weight="1.00"/>
        <tazSource id="13871627#0" weight="1.00"/>
        <tazSink id="13871627#0" weight="1.00"/>
        <tazSource id="206293851" weight="1.00"/>
        <tazSink id="206293851" weight="1.00"/>
        <tazSource id="206451118#0" weight="1.00"/>
        <tazSink id="206451118#0" weight="1.00"/>
        <tazSource id="24655690#0" weight="1.00"/>
        <tazSink id="24655690#0" weight="1.00"/>
        <tazSource id="24819641#0" weight="1.00"/>
        <tazSink id="24819641#0" weight="1.00"/>
        <tazSource id="25600876#0" weight="1.00"/>
        <tazSink id="25600876#0" weight="1.00"/>
        <tazSource id="25600876#4" weight="1.00"/>
        <tazSink id="25600876#4" weight="1.00"/>
        <tazSource id="25607735#0" weight="1.00"/>
        <tazSink id="25607735#0" weight="1.00"/>
        <tazSource id="259882550" weight="1.00"/>
        <tazSink id="259882550" weight="1.00"/>
        <tazSource id="259882554#0" weight="1.00"/>
        <tazSink id="259882554#0" weight="1.00"/>
        <tazSource id="259882555" weight="1.00"/>
        <tazSink id="259882555" weight="1.00"/>
        <tazSource id="259921926#0" weight="1.00"/>
        <tazSink id="259921926#0" weight="1.00"/>
        <tazSource id="261740052#0" weight="1.00"/>
        <tazSink id="261740052#0" weight="1.00"/>
        <tazSource id="27653247#0" weight="1.00"/>
        <tazSink id="27653247#0" weight="1.00"/>
        <tazSource id="2896894#0" weight="1.00"/>
        <tazSink id="2896894#0" weight="1.00"/>
        <tazSource id="29106577#0" weight="1.00"/>
        <tazSink id="29106577#0" weight="1.00"/>
        <tazSource id="370443423" weight="1.00"/>
        <tazSink id="370443423" weight="1.00"/>
        <tazSource id="37138338" weight="1.00"/>
        <tazSink id="37138338" weight="1.00"/>
        <tazSource id="378655055#0" weight="1.00"/>
        <tazSink id="378655055#0" weight="1.00"/>
        <tazSource id="378655056#0" weight="1.00"/>
        <tazSink id="378655056#0" weight="1.00"/>
        <tazSource id="378655060" weight="1.00"/>
        <tazSink id="378655060" weight="1.00"/>
        <tazSource id="378655061#0" weight="1.00"/>
        <tazSink id="378655061#0" weight="1.00"/>
        <tazSource id="414512199#0" weight="1.00"/>
        <tazSink id="414512199#0" weight="1.00"/>
        <tazSource id="414512202" weight="1.00"/>
        <tazSink id="414512202" weight="1.00"/>
        <tazSource id="414512668#0" weight="1.00"/>
        <tazSink id="414512668#0" weight="1.00"/>
        <tazSource id="426790052" weight="1.00"/>
        <tazSink id="426790052" weight="1.00"/>
        <tazSource id="443406807" weight="1.00"/>
        <tazSink id="443406807" weight="1.00"/>
        <tazSource id="4444385#0" weight="1.00"/>
        <tazSink id="4444385#0" weight="1.00"/>
        <tazSource id="4444385#2" weight="1.00"/>
        <tazSink id="4444385#2" weight="1.00"/>
        <tazSource id="4444387#0" weight="1.00"/>
        <tazSink id="4444387#0" weight="1.00"/>
        <tazSource id="4553661#0" weight="1.00"/>
        <tazSink id="4553661#0" weight="1.00"/>
        <tazSource id="478472521" weight="1.00"/>
        <tazSink id="478472521" weight="1.00"/>
        <tazSource id="478472522" weight="1.00"/>
        <tazSink id="478472522" weight="1.00"/>
        <tazSource id="478472523" weight="1.00"/>
        <tazSink id="478472523" weight="1.00"/>
        <tazSource id="478472524" weight="1.00"/>
        <tazSink id="478472524" weight="1.00"/>
        <tazSource id="478516443" weight="1.00"/>
        <tazSink id="478516443" weight="1.00"/>
        <tazSource id="481799129" weight="1.00"/>
        <tazSink id="481799129" weight="1.00"/>
        <tazSource id="5012278" weight="1.00"/>
        <tazSink id="5012278" weight="1.00"/>
        <tazSource id="5047943" weight="1.00"/>
        <tazSink id="5047943" weight="1.00"/>
        <tazSource id="5047996#0" weight="1.00"/>
        <tazSink id="5047996#0" weight="1.00"/>
        <tazSource id="65157090#0" weight="1.00"/>
        <tazSink id="65157090#0" weight="1.00"/>